
simpleFoam has been superseded and replaced by the more general
incompressibleFluid solver module executed by the foamRun application:

    foamRun -solver incompressibleFluid


simpleFoam has been superseded and replaced by the more general
incompressibleFluid solver module executed by the foamRun application:

    foamRun -solver incompressibleFluid


simpleFoam has been superseded and replaced by the more general
incompressibleFluid solver module executed by the foamRun application:

    foamRun -solver incompressibleFluid

/*---------------------------------------------------------------------------*\
  =========                 |
  \\      /  F ield         | OpenFOAM: The Open Source CFD Toolbox
   \\    /   O peration     | Website:  https://openfoam.org
    \\  /    A nd           | Version:  12
     \\/     M anipulation  |
\*---------------------------------------------------------------------------*/
Build  : 12-86e126a7bc4d
Exec   : foamRun -solver incompressibleFluid -parallel
Date   : Jun 23 2025
Time   : 23:48:34
Host   : "EmiAlamilla"
PID    : 54588
I/O    : uncollated
Case   : /home/emilianoalamilla/CFD/Aircraft/AoA_0
nProcs : 3
Slaves : 
2
(
"EmiAlamilla.54590"
"EmiAlamilla.54592"
)

Pstream initialised with:
    floatTransfer      : false
    nProcsSimpleSum    : 0
    commsType          : nonBlocking
    polling iterations : 0
sigFpe : Enabling floating point exception trapping (FOAM_SIGFPE).
fileModificationChecking : Monitoring run-time modified files using timeStampMaster (fileModificationSkew 10)
allowSystemOperations : Allowing user-supplied system call operations

// * * * * * * * * * * * * * * * * * * * * * * * * * * * * * * * * * * * * * //
Create time

Create mesh for time = 0

Selecting solver incompressibleFluid
Selecting viscosity model constant
Selecting turbulence model type RAS
Selecting RAS turbulence model SpalartAllmaras
RAS
{
    RASModel        SpalartAllmaras;
    turbulence      on;
    printCoeffs     on;
    sigmaNut        0.66666;
    kappa           0.41;
    Cb1             0.1355;
    Cb2             0.622;
    Cw2             0.3;
    Cw3             2;
    Cv1             7.1;
    Cs              0.3;
}

No MRF models present


SIMPLE: Convergence criteria found
        p: tolerance 1e-05
        U: tolerance 1e-05
        nuTilda: tolerance 1e-05


SIMPLE: Operating solver in steady-state mode with 1 outer corrector
SIMPLE: Operating solver in SIMPLE mode



Starting time loop

forcesBase canard_1:
    Not including porosity effects
forces canard_1:
    Not including porosity effects
forceCoeffs canard_1:
    Not including porosity effects
forcesBase canard_2:
    Not including porosity effects
forces canard_2:
    Not including porosity effects
forceCoeffs canard_2:
    Not including porosity effects
forcesBase canard_3:
    Not including porosity effects
forces canard_3:
    Not including porosity effects
forceCoeffs canard_3:
    Not including porosity effects
forcesBase canard_4:
    Not including porosity effects
forces canard_4:
    Not including porosity effects
forceCoeffs canard_4:
    Not including porosity effects
forcesBase canard_5:
    Not including porosity effects
forces canard_5:
    Not including porosity effects
forceCoeffs canard_5:
    Not including porosity effects
forcesBase canard_6:
    Not including porosity effects
forces canard_6:
    Not including porosity effects
forceCoeffs canard_6:
    Not including porosity effects
forcesBase canard_7:
    Not including porosity effects
forces canard_7:
    Not including porosity effects
forceCoeffs canard_7:
    Not including porosity effects
forcesBase canard_8:
    Not including porosity effects
forces canard_8:
    Not including porosity effects
forceCoeffs canard_8:
    Not including porosity effects
forcesBase canard_9:
    Not including porosity effects
forces canard_9:
    Not including porosity effects
forceCoeffs canard_9:
    Not including porosity effects
forcesBase canard_10:
    Not including porosity effects
forces canard_10:
    Not including porosity effects
forceCoeffs canard_10:
    Not including porosity effects
forcesBase canard_11:
    Not including porosity effects
forces canard_11:
    Not including porosity effects
forceCoeffs canard_11:
    Not including porosity effects
forceCoeffs canard_1 write:
    Cm    = 0.000470938
    Cd    = 0.00641145
    Cl    = 1.06347e-05
    Cl(f) = 0.000476256
    Cl(r) = -0.000465621

forceCoeffs canard_2 write:
    Cm    = 0.000473728
    Cd    = 0.00641145
    Cl    = 1.06347e-05
    Cl(f) = 0.000479045
    Cl(r) = -0.00046841

forceCoeffs canard_3 write:
    Cm    = 0.000476517
    Cd    = 0.00641145
    Cl    = 1.06347e-05
    Cl(f) = 0.000481834
    Cl(r) = -0.0004712

forceCoeffs canard_4 write:
    Cm    = 0.000479306
    Cd    = 0.00641145
    Cl    = 1.06347e-05
    Cl(f) = 0.000484624
    Cl(r) = -0.000473989

forceCoeffs canard_5 write:
    Cm    = 0.000482096
    Cd    = 0.00641145
    Cl    = 1.06347e-05
    Cl(f) = 0.000487413
    Cl(r) = -0.000476779

forceCoeffs canard_6 write:
    Cm    = 0.000484885
    Cd    = 0.00641145
    Cl    = 1.06347e-05
    Cl(f) = 0.000490203
    Cl(r) = -0.000479568

forceCoeffs canard_7 write:
    Cm    = 0.000487675
    Cd    = 0.00641145
    Cl    = 1.06347e-05
    Cl(f) = 0.000492992
    Cl(r) = -0.000482357

forceCoeffs canard_8 write:
    Cm    = 0.000490464
    Cd    = 0.00641145
    Cl    = 1.06347e-05
    Cl(f) = 0.000495782
    Cl(r) = -0.000485147

forceCoeffs canard_9 write:
    Cm    = 0.000493254
    Cd    = 0.00641145
    Cl    = 1.06347e-05
    Cl(f) = 0.000498571
    Cl(r) = -0.000487936

forceCoeffs canard_10 write:
    Cm    = 0.000496043
    Cd    = 0.00641145
    Cl    = 1.06347e-05
    Cl(f) = 0.00050136
    Cl(r) = -0.000490726

forceCoeffs canard_11 write:
    Cm    = 0.000498833
    Cd    = 0.00641145
    Cl    = 1.06347e-05
    Cl(f) = 0.00050415
    Cl(r) = -0.000493515

Time = 1s

smoothSolver:  Solving for Ux, Initial residual = 1, Final residual = 0.0317115, No Iterations 4
smoothSolver:  Solving for Uy, Initial residual = 1, Final residual = 0.0239751, No Iterations 4
smoothSolver:  Solving for Uz, Initial residual = 1, Final residual = 0.0198061, No Iterations 4
GAMG:  Solving for p, Initial residual = 1, Final residual = 0.0913698, No Iterations 5
time step continuity errors : sum local = 0.000371102, global = -1.46169e-05, cumulative = -1.46169e-05
Selecting patchDistMethod meshWave
smoothSolver:  Solving for nuTilda, Initial residual = 1, Final residual = 0.0223107, No Iterations 2
ExecutionTime = 44.9466 s  ClockTime = 46 s

forceCoeffs canard_1 write:
    Cm    = -1.53007
    Cd    = 2.53058
    Cl    = 0.402991
    Cl(f) = -1.32857
    Cl(r) = 1.73157

forceCoeffs canard_2 write:
    Cm    = -1.42437
    Cd    = 2.53058
    Cl    = 0.402991
    Cl(f) = -1.22287
    Cl(r) = 1.62586

forceCoeffs canard_3 write:
    Cm    = -1.31867
    Cd    = 2.53058
    Cl    = 0.402991
    Cl(f) = -1.11717
    Cl(r) = 1.52016

forceCoeffs canard_4 write:
    Cm    = -1.21296
    Cd    = 2.53058
    Cl    = 0.402991
    Cl(f) = -1.01147
    Cl(r) = 1.41446

forceCoeffs canard_5 write:
    Cm    = -1.10726
    Cd    = 2.53058
    Cl    = 0.402991
    Cl(f) = -0.905765
    Cl(r) = 1.30876

forceCoeffs canard_6 write:
    Cm    = -1.00156
    Cd    = 2.53058
    Cl    = 0.402991
    Cl(f) = -0.800062
    Cl(r) = 1.20305

forceCoeffs canard_7 write:
    Cm    = -0.895855
    Cd    = 2.53058
    Cl    = 0.402991
    Cl(f) = -0.69436
    Cl(r) = 1.09735

forceCoeffs canard_8 write:
    Cm    = -0.790153
    Cd    = 2.53058
    Cl    = 0.402991
    Cl(f) = -0.588657
    Cl(r) = 0.991648

forceCoeffs canard_9 write:
    Cm    = -0.68445
    Cd    = 2.53058
    Cl    = 0.402991
    Cl(f) = -0.482955
    Cl(r) = 0.885945

forceCoeffs canard_10 write:
    Cm    = -0.578748
    Cd    = 2.53058
    Cl    = 0.402991
    Cl(f) = -0.377252
    Cl(r) = 0.780243

forceCoeffs canard_11 write:
    Cm    = -0.473045
    Cd    = 2.53058
    Cl    = 0.402991
    Cl(f) = -0.27155
    Cl(r) = 0.67454

Time = 2s

smoothSolver:  Solving for Ux, Initial residual = 0.121723, Final residual = 0.00845046, No Iterations 4
smoothSolver:  Solving for Uy, Initial residual = 0.471252, Final residual = 0.0355315, No Iterations 4
smoothSolver:  Solving for Uz, Initial residual = 0.612817, Final residual = 0.0437329, No Iterations 4
GAMG:  Solving for p, Initial residual = 0.0675062, Final residual = 0.0034034, No Iterations 3
time step continuity errors : sum local = 0.000554462, global = 1.18462e-05, cumulative = -2.77076e-06
smoothSolver:  Solving for nuTilda, Initial residual = 0.0337684, Final residual = 0.0022246, No Iterations 2
ExecutionTime = 63.5325 s  ClockTime = 65 s

forceCoeffs canard_1 write:
    Cm    = -1.08555
    Cd    = 1.66183
    Cl    = 0.549367
    Cl(f) = -0.810867
    Cl(r) = 1.36023

forceCoeffs canard_2 write:
    Cm    = -0.941454
    Cd    = 1.66183
    Cl    = 0.549367
    Cl(f) = -0.666771
    Cl(r) = 1.21614

forceCoeffs canard_3 write:
    Cm    = -0.797358
    Cd    = 1.66183
    Cl    = 0.549367
    Cl(f) = -0.522674
    Cl(r) = 1.07204

forceCoeffs canard_4 write:
    Cm    = -0.653262
    Cd    = 1.66183
    Cl    = 0.549367
    Cl(f) = -0.378578
    Cl(r) = 0.927945

forceCoeffs canard_5 write:
    Cm    = -0.509165
    Cd    = 1.66183
    Cl    = 0.549367
    Cl(f) = -0.234482
    Cl(r) = 0.783849

forceCoeffs canard_6 write:
    Cm    = -0.365069
    Cd    = 1.66183
    Cl    = 0.549367
    Cl(f) = -0.0903853
    Cl(r) = 0.639753

forceCoeffs canard_7 write:
    Cm    = -0.220973
    Cd    = 1.66183
    Cl    = 0.549367
    Cl(f) = 0.053711
    Cl(r) = 0.495656

forceCoeffs canard_8 write:
    Cm    = -0.0768763
    Cd    = 1.66183
    Cl    = 0.549367
    Cl(f) = 0.197807
    Cl(r) = 0.35156

forceCoeffs canard_9 write:
    Cm    = 0.0672201
    Cd    = 1.66183
    Cl    = 0.549367
    Cl(f) = 0.341904
    Cl(r) = 0.207464

forceCoeffs canard_10 write:
    Cm    = 0.211316
    Cd    = 1.66183
    Cl    = 0.549367
    Cl(f) = 0.486
    Cl(r) = 0.0633672

forceCoeffs canard_11 write:
    Cm    = 0.355413
    Cd    = 1.66183
    Cl    = 0.549367
    Cl(f) = 0.630096
    Cl(r) = -0.0807291

Time = 3s

smoothSolver:  Solving for Ux, Initial residual = 0.0213305, Final residual = 0.00148956, No Iterations 4
smoothSolver:  Solving for Uy, Initial residual = 0.125093, Final residual = 0.00950507, No Iterations 4
smoothSolver:  Solving for Uz, Initial residual = 0.264192, Final residual = 0.0187816, No Iterations 4
GAMG:  Solving for p, Initial residual = 0.0838028, Final residual = 0.0056101, No Iterations 3
time step continuity errors : sum local = 0.00123795, global = 5.47976e-05, cumulative = 5.20268e-05
smoothSolver:  Solving for nuTilda, Initial residual = 0.00752047, Final residual = 0.000172739, No Iterations 4
ExecutionTime = 77.9789 s  ClockTime = 80 s

forceCoeffs canard_1 write:
    Cm    = -0.0989753
    Cd    = -0.0930509
    Cl    = 0.673918
    Cl(f) = 0.237984
    Cl(r) = 0.435934

forceCoeffs canard_2 write:
    Cm    = 0.07779
    Cd    = -0.0930509
    Cl    = 0.673918
    Cl(f) = 0.414749
    Cl(r) = 0.259169

forceCoeffs canard_3 write:
    Cm    = 0.254555
    Cd    = -0.0930509
    Cl    = 0.673918
    Cl(f) = 0.591514
    Cl(r) = 0.0824036

forceCoeffs canard_4 write:
    Cm    = 0.431321
    Cd    = -0.0930509
    Cl    = 0.673918
    Cl(f) = 0.768279
    Cl(r) = -0.0943617

forceCoeffs canard_5 write:
    Cm    = 0.608086
    Cd    = -0.0930509
    Cl    = 0.673918
    Cl(f) = 0.945045
    Cl(r) = -0.271127

forceCoeffs canard_6 write:
    Cm    = 0.784851
    Cd    = -0.0930509
    Cl    = 0.673918
    Cl(f) = 1.12181
    Cl(r) = -0.447892

forceCoeffs canard_7 write:
    Cm    = 0.961616
    Cd    = -0.0930509
    Cl    = 0.673918
    Cl(f) = 1.29858
    Cl(r) = -0.624658

forceCoeffs canard_8 write:
    Cm    = 1.13838
    Cd    = -0.0930509
    Cl    = 0.673918
    Cl(f) = 1.47534
    Cl(r) = -0.801423

forceCoeffs canard_9 write:
    Cm    = 1.31515
    Cd    = -0.0930509
    Cl    = 0.673918
    Cl(f) = 1.65211
    Cl(r) = -0.978188

forceCoeffs canard_10 write:
    Cm    = 1.49191
    Cd    = -0.0930509
    Cl    = 0.673918
    Cl(f) = 1.82887
    Cl(r) = -1.15495

forceCoeffs canard_11 write:
    Cm    = 1.66868
    Cd    = -0.0930509
    Cl    = 0.673918
    Cl(f) = 2.00564
    Cl(r) = -1.33172

Time = 4s

smoothSolver:  Solving for Ux, Initial residual = 0.00705223, Final residual = 0.000419677, No Iterations 4
smoothSolver:  Solving for Uy, Initial residual = 0.0350448, Final residual = 0.00215578, No Iterations 4
smoothSolver:  Solving for Uz, Initial residual = 0.11656, Final residual = 0.00698489, No Iterations 4
GAMG:  Solving for p, Initial residual = 0.0573952, Final residual = 0.00403223, No Iterations 3
time step continuity errors : sum local = 0.00090403, global = 4.72954e-05, cumulative = 9.93222e-05
smoothSolver:  Solving for nuTilda, Initial residual = 0.0033701, Final residual = 0.000111508, No Iterations 4
ExecutionTime = 90.6851 s  ClockTime = 93 s

forceCoeffs canard_1 write:
    Cm    = 0.393215
    Cd    = -0.960135
    Cl    = 0.716489
    Cl(f) = 0.75146
    Cl(r) = -0.0349707

forceCoeffs canard_2 write:
    Cm    = 0.581147
    Cd    = -0.960135
    Cl    = 0.716489
    Cl(f) = 0.939391
    Cl(r) = -0.222902

forceCoeffs canard_3 write:
    Cm    = 0.769078
    Cd    = -0.960135
    Cl    = 0.716489
    Cl(f) = 1.12732
    Cl(r) = -0.410834

forceCoeffs canard_4 write:
    Cm    = 0.95701
    Cd    = -0.960135
    Cl    = 0.716489
    Cl(f) = 1.31525
    Cl(r) = -0.598765

forceCoeffs canard_5 write:
    Cm    = 1.14494
    Cd    = -0.960135
    Cl    = 0.716489
    Cl(f) = 1.50319
    Cl(r) = -0.786697

forceCoeffs canard_6 write:
    Cm    = 1.33287
    Cd    = -0.960135
    Cl    = 0.716489
    Cl(f) = 1.69112
    Cl(r) = -0.974629

forceCoeffs canard_7 write:
    Cm    = 1.5208
    Cd    = -0.960135
    Cl    = 0.716489
    Cl(f) = 1.87905
    Cl(r) = -1.16256

forceCoeffs canard_8 write:
    Cm    = 1.70874
    Cd    = -0.960135
    Cl    = 0.716489
    Cl(f) = 2.06698
    Cl(r) = -1.35049

forceCoeffs canard_9 write:
    Cm    = 1.89667
    Cd    = -0.960135
    Cl    = 0.716489
    Cl(f) = 2.25491
    Cl(r) = -1.53842

forceCoeffs canard_10 write:
    Cm    = 2.0846
    Cd    = -0.960135
    Cl    = 0.716489
    Cl(f) = 2.44284
    Cl(r) = -1.72635

forceCoeffs canard_11 write:
    Cm    = 2.27253
    Cd    = -0.960135
    Cl    = 0.716489
    Cl(f) = 2.63078
    Cl(r) = -1.91429

Time = 5s

smoothSolver:  Solving for Ux, Initial residual = 0.0122809, Final residual = 0.000848917, No Iterations 4
smoothSolver:  Solving for Uy, Initial residual = 0.06084, Final residual = 0.00437208, No Iterations 4
smoothSolver:  Solving for Uz, Initial residual = 0.172165, Final residual = 0.0113926, No Iterations 4
GAMG:  Solving for p, Initial residual = 0.0665227, Final residual = 0.00412455, No Iterations 3
time step continuity errors : sum local = 0.000739892, global = 3.13115e-05, cumulative = 0.000130634
smoothSolver:  Solving for nuTilda, Initial residual = 0.00218803, Final residual = 8.66658e-05, No Iterations 4
ExecutionTime = 104.557 s  ClockTime = 107 s

forceCoeffs canard_1 write:
    Cm    = 0.228061
    Cd    = -0.641332
    Cl    = 0.56826
    Cl(f) = 0.512191
    Cl(r) = 0.0560692

forceCoeffs canard_2 write:
    Cm    = 0.377113
    Cd    = -0.641332
    Cl    = 0.56826
    Cl(f) = 0.661243
    Cl(r) = -0.0929827

forceCoeffs canard_3 write:
    Cm    = 0.526165
    Cd    = -0.641332
    Cl    = 0.56826
    Cl(f) = 0.810295
    Cl(r) = -0.242034

forceCoeffs canard_4 write:
    Cm    = 0.675216
    Cd    = -0.641332
    Cl    = 0.56826
    Cl(f) = 0.959346
    Cl(r) = -0.391086

forceCoeffs canard_5 write:
    Cm    = 0.824268
    Cd    = -0.641332
    Cl    = 0.56826
    Cl(f) = 1.1084
    Cl(r) = -0.540138

forceCoeffs canard_6 write:
    Cm    = 0.97332
    Cd    = -0.641332
    Cl    = 0.56826
    Cl(f) = 1.25745
    Cl(r) = -0.68919

forceCoeffs canard_7 write:
    Cm    = 1.12237
    Cd    = -0.641332
    Cl    = 0.56826
    Cl(f) = 1.4065
    Cl(r) = -0.838242

forceCoeffs canard_8 write:
    Cm    = 1.27142
    Cd    = -0.641332
    Cl    = 0.56826
    Cl(f) = 1.55555
    Cl(r) = -0.987294

forceCoeffs canard_9 write:
    Cm    = 1.42048
    Cd    = -0.641332
    Cl    = 0.56826
    Cl(f) = 1.70461
    Cl(r) = -1.13635

forceCoeffs canard_10 write:
    Cm    = 1.56953
    Cd    = -0.641332
    Cl    = 0.56826
    Cl(f) = 1.85366
    Cl(r) = -1.2854

forceCoeffs canard_11 write:
    Cm    = 1.71858
    Cd    = -0.641332
    Cl    = 0.56826
    Cl(f) = 2.00271
    Cl(r) = -1.43445

Time = 6s

smoothSolver:  Solving for Ux, Initial residual = 0.0188608, Final residual = 0.00128459, No Iterations 4
smoothSolver:  Solving for Uy, Initial residual = 0.0486635, Final residual = 0.00349114, No Iterations 4
smoothSolver:  Solving for Uz, Initial residual = 0.222115, Final residual = 0.0152341, No Iterations 4
GAMG:  Solving for p, Initial residual = 0.13742, Final residual = 0.00763, No Iterations 3
time step continuity errors : sum local = 0.000821667, global = -2.57861e-05, cumulative = 0.000104848
smoothSolver:  Solving for nuTilda, Initial residual = 0.00167435, Final residual = 7.26518e-05, No Iterations 4
bounding nuTilda, min: -2.7927e-06 max: 0.0278278 average: 0.0164259
ExecutionTime = 117.404 s  ClockTime = 120 s

forceCoeffs canard_1 write:
    Cm    = -0.153332
    Cd    = 0.105799
    Cl    = 0.26654
    Cl(f) = -0.0200618
    Cl(r) = 0.286602

forceCoeffs canard_2 write:
    Cm    = -0.0834196
    Cd    = 0.105799
    Cl    = 0.26654
    Cl(f) = 0.0498502
    Cl(r) = 0.216689

forceCoeffs canard_3 write:
    Cm    = -0.0135076
    Cd    = 0.105799
    Cl    = 0.26654
    Cl(f) = 0.119762
    Cl(r) = 0.146777

forceCoeffs canard_4 write:
    Cm    = 0.0564045
    Cd    = 0.105799
    Cl    = 0.26654
    Cl(f) = 0.189674
    Cl(r) = 0.0768654

forceCoeffs canard_5 write:
    Cm    = 0.126317
    Cd    = 0.105799
    Cl    = 0.26654
    Cl(f) = 0.259586
    Cl(r) = 0.00695332

forceCoeffs canard_6 write:
    Cm    = 0.196229
    Cd    = 0.105799
    Cl    = 0.26654
    Cl(f) = 0.329498
    Cl(r) = -0.0629587

forceCoeffs canard_7 write:
    Cm    = 0.266141
    Cd    = 0.105799
    Cl    = 0.26654
    Cl(f) = 0.39941
    Cl(r) = -0.132871

forceCoeffs canard_8 write:
    Cm    = 0.336053
    Cd    = 0.105799
    Cl    = 0.26654
    Cl(f) = 0.469323
    Cl(r) = -0.202783

forceCoeffs canard_9 write:
    Cm    = 0.405965
    Cd    = 0.105799
    Cl    = 0.26654
    Cl(f) = 0.539235
    Cl(r) = -0.272695

forceCoeffs canard_10 write:
    Cm    = 0.475877
    Cd    = 0.105799
    Cl    = 0.26654
    Cl(f) = 0.609147
    Cl(r) = -0.342607

forceCoeffs canard_11 write:
    Cm    = 0.545789
    Cd    = 0.105799
    Cl    = 0.26654
    Cl(f) = 0.679059
    Cl(r) = -0.412519

Time = 7s

smoothSolver:  Solving for Ux, Initial residual = 0.0163881, Final residual = 0.000934925, No Iterations 4
smoothSolver:  Solving for Uy, Initial residual = 0.0356582, Final residual = 0.00221352, No Iterations 4
smoothSolver:  Solving for Uz, Initial residual = 0.216712, Final residual = 0.0136629, No Iterations 4
GAMG:  Solving for p, Initial residual = 0.649232, Final residual = 0.0366723, No Iterations 3
time step continuity errors : sum local = 0.000590439, global = -3.75369e-05, cumulative = 6.73107e-05
smoothSolver:  Solving for nuTilda, Initial residual = 0.00153171, Final residual = 6.22243e-05, No Iterations 4
ExecutionTime = 129.599 s  ClockTime = 132 s

forceCoeffs canard_1 write:
    Cm    = -0.354256
    Cd    = 0.534372
    Cl    = 0.0738033
    Cl(f) = -0.317354
    Cl(r) = 0.391158

forceCoeffs canard_2 write:
    Cm    = -0.334898
    Cd    = 0.534372
    Cl    = 0.0738033
    Cl(f) = -0.297996
    Cl(r) = 0.3718

forceCoeffs canard_3 write:
    Cm    = -0.31554
    Cd    = 0.534372
    Cl    = 0.0738033
    Cl(f) = -0.278638
    Cl(r) = 0.352441

forceCoeffs canard_4 write:
    Cm    = -0.296181
    Cd    = 0.534372
    Cl    = 0.0738033
    Cl(f) = -0.25928
    Cl(r) = 0.333083

forceCoeffs canard_5 write:
    Cm    = -0.276823
    Cd    = 0.534372
    Cl    = 0.0738033
    Cl(f) = -0.239921
    Cl(r) = 0.313725

forceCoeffs canard_6 write:
    Cm    = -0.257465
    Cd    = 0.534372
    Cl    = 0.0738033
    Cl(f) = -0.220563
    Cl(r) = 0.294367

forceCoeffs canard_7 write:
    Cm    = -0.238107
    Cd    = 0.534372
    Cl    = 0.0738033
    Cl(f) = -0.201205
    Cl(r) = 0.275008

forceCoeffs canard_8 write:
    Cm    = -0.218748
    Cd    = 0.534372
    Cl    = 0.0738033
    Cl(f) = -0.181847
    Cl(r) = 0.25565

forceCoeffs canard_9 write:
    Cm    = -0.19939
    Cd    = 0.534372
    Cl    = 0.0738033
    Cl(f) = -0.162488
    Cl(r) = 0.236292

forceCoeffs canard_10 write:
    Cm    = -0.180032
    Cd    = 0.534372
    Cl    = 0.0738033
    Cl(f) = -0.14313
    Cl(r) = 0.216933

forceCoeffs canard_11 write:
    Cm    = -0.160674
    Cd    = 0.534372
    Cl    = 0.0738033
    Cl(f) = -0.123772
    Cl(r) = 0.197575

Time = 8s

smoothSolver:  Solving for Ux, Initial residual = 0.0125584, Final residual = 0.000758772, No Iterations 4
smoothSolver:  Solving for Uy, Initial residual = 0.0463179, Final residual = 0.00312291, No Iterations 4
smoothSolver:  Solving for Uz, Initial residual = 0.181184, Final residual = 0.0108775, No Iterations 4
GAMG:  Solving for p, Initial residual = 0.264825, Final residual = 0.0168345, No Iterations 3
time step continuity errors : sum local = 0.000646991, global = -4.38733e-05, cumulative = 2.34374e-05
smoothSolver:  Solving for nuTilda, Initial residual = 0.00131644, Final residual = 5.37166e-05, No Iterations 4
ExecutionTime = 142.151 s  ClockTime = 145 s

forceCoeffs canard_1 write:
    Cm    = -0.303547
    Cd    = 0.436348
    Cl    = 0.19163
    Cl(f) = -0.207731
    Cl(r) = 0.399362

forceCoeffs canard_2 write:
    Cm    = -0.253283
    Cd    = 0.436348
    Cl    = 0.19163
    Cl(f) = -0.157468
    Cl(r) = 0.349098

forceCoeffs canard_3 write:
    Cm    = -0.203019
    Cd    = 0.436348
    Cl    = 0.19163
    Cl(f) = -0.107204
    Cl(r) = 0.298834

forceCoeffs canard_4 write:
    Cm    = -0.152755
    Cd    = 0.436348
    Cl    = 0.19163
    Cl(f) = -0.0569402
    Cl(r) = 0.248571

forceCoeffs canard_5 write:
    Cm    = -0.102492
    Cd    = 0.436348
    Cl    = 0.19163
    Cl(f) = -0.00667652
    Cl(r) = 0.198307

forceCoeffs canard_6 write:
    Cm    = -0.052228
    Cd    = 0.436348
    Cl    = 0.19163
    Cl(f) = 0.0435872
    Cl(r) = 0.148043

forceCoeffs canard_7 write:
    Cm    = -0.00196429
    Cd    = 0.436348
    Cl    = 0.19163
    Cl(f) = 0.0938509
    Cl(r) = 0.0977795

forceCoeffs canard_8 write:
    Cm    = 0.0482994
    Cd    = 0.436348
    Cl    = 0.19163
    Cl(f) = 0.144115
    Cl(r) = 0.0475158

forceCoeffs canard_9 write:
    Cm    = 0.0985631
    Cd    = 0.436348
    Cl    = 0.19163
    Cl(f) = 0.194378
    Cl(r) = -0.00274793

forceCoeffs canard_10 write:
    Cm    = 0.148827
    Cd    = 0.436348
    Cl    = 0.19163
    Cl(f) = 0.244642
    Cl(r) = -0.0530116

forceCoeffs canard_11 write:
    Cm    = 0.199091
    Cd    = 0.436348
    Cl    = 0.19163
    Cl(f) = 0.294906
    Cl(r) = -0.103275

Time = 9s

smoothSolver:  Solving for Ux, Initial residual = 0.00855061, Final residual = 0.000548753, No Iterations 4
smoothSolver:  Solving for Uy, Initial residual = 0.0386898, Final residual = 0.00261416, No Iterations 4
smoothSolver:  Solving for Uz, Initial residual = 0.143105, Final residual = 0.00900247, No Iterations 4
GAMG:  Solving for p, Initial residual = 0.235178, Final residual = 0.0132373, No Iterations 3
time step continuity errors : sum local = 0.000638656, global = -2.60169e-06, cumulative = 2.08357e-05
smoothSolver:  Solving for nuTilda, Initial residual = 0.00114439, Final residual = 4.7197e-05, No Iterations 4
ExecutionTime = 156.283 s  ClockTime = 159 s

forceCoeffs canard_1 write:
    Cm    = -0.170798
    Cd    = 0.125165
    Cl    = 0.499251
    Cl(f) = 0.0788274
    Cl(r) = 0.420424

forceCoeffs canard_2 write:
    Cm    = -0.0398471
    Cd    = 0.125165
    Cl    = 0.499251
    Cl(f) = 0.209779
    Cl(r) = 0.289473

forceCoeffs canard_3 write:
    Cm    = 0.0911041
    Cd    = 0.125165
    Cl    = 0.499251
    Cl(f) = 0.34073
    Cl(r) = 0.158522

forceCoeffs canard_4 write:
    Cm    = 0.222055
    Cd    = 0.125165
    Cl    = 0.499251
    Cl(f) = 0.471681
    Cl(r) = 0.0275704

forceCoeffs canard_5 write:
    Cm    = 0.353007
    Cd    = 0.125165
    Cl    = 0.499251
    Cl(f) = 0.602632
    Cl(r) = -0.103381

forceCoeffs canard_6 write:
    Cm    = 0.483958
    Cd    = 0.125165
    Cl    = 0.499251
    Cl(f) = 0.733583
    Cl(r) = -0.234332

forceCoeffs canard_7 write:
    Cm    = 0.614909
    Cd    = 0.125165
    Cl    = 0.499251
    Cl(f) = 0.864535
    Cl(r) = -0.365283

forceCoeffs canard_8 write:
    Cm    = 0.74586
    Cd    = 0.125165
    Cl    = 0.499251
    Cl(f) = 0.995486
    Cl(r) = -0.496234

forceCoeffs canard_9 write:
    Cm    = 0.876811
    Cd    = 0.125165
    Cl    = 0.499251
    Cl(f) = 1.12644
    Cl(r) = -0.627186

forceCoeffs canard_10 write:
    Cm    = 1.00776
    Cd    = 0.125165
    Cl    = 0.499251
    Cl(f) = 1.25739
    Cl(r) = -0.758137

forceCoeffs canard_11 write:
    Cm    = 1.13871
    Cd    = 0.125165
    Cl    = 0.499251
    Cl(f) = 1.38834
    Cl(r) = -0.889088

Time = 10s

smoothSolver:  Solving for Ux, Initial residual = 0.00655918, Final residual = 0.000396043, No Iterations 4
smoothSolver:  Solving for Uy, Initial residual = 0.0334204, Final residual = 0.00207865, No Iterations 4
smoothSolver:  Solving for Uz, Initial residual = 0.132299, Final residual = 0.0083019, No Iterations 4
GAMG:  Solving for p, Initial residual = 0.0611057, Final residual = 0.00322918, No Iterations 3
time step continuity errors : sum local = 0.00046572, global = 2.54208e-05, cumulative = 4.62565e-05
smoothSolver:  Solving for nuTilda, Initial residual = 0.00101447, Final residual = 4.26896e-05, No Iterations 4
ExecutionTime = 177.763 s  ClockTime = 180 s

forceCoeffs canard_1 write:
    Cm    = -0.101195
    Cd    = -0.07993
    Cl    = 0.732651
    Cl(f) = 0.26513
    Cl(r) = 0.467521

forceCoeffs canard_2 write:
    Cm    = 0.0909753
    Cd    = -0.07993
    Cl    = 0.732651
    Cl(f) = 0.457301
    Cl(r) = 0.27535

forceCoeffs canard_3 write:
    Cm    = 0.283146
    Cd    = -0.07993
    Cl    = 0.732651
    Cl(f) = 0.649472
    Cl(r) = 0.0831795

forceCoeffs canard_4 write:
    Cm    = 0.475317
    Cd    = -0.07993
    Cl    = 0.732651
    Cl(f) = 0.841642
    Cl(r) = -0.108991

forceCoeffs canard_5 write:
    Cm    = 0.667488
    Cd    = -0.07993
    Cl    = 0.732651
    Cl(f) = 1.03381
    Cl(r) = -0.301162

forceCoeffs canard_6 write:
    Cm    = 0.859658
    Cd    = -0.07993
    Cl    = 0.732651
    Cl(f) = 1.22598
    Cl(r) = -0.493333

forceCoeffs canard_7 write:
    Cm    = 1.05183
    Cd    = -0.07993
    Cl    = 0.732651
    Cl(f) = 1.41815
    Cl(r) = -0.685504

forceCoeffs canard_8 write:
    Cm    = 1.244
    Cd    = -0.07993
    Cl    = 0.732651
    Cl(f) = 1.61033
    Cl(r) = -0.877674

forceCoeffs canard_9 write:
    Cm    = 1.43617
    Cd    = -0.07993
    Cl    = 0.732651
    Cl(f) = 1.8025
    Cl(r) = -1.06985

forceCoeffs canard_10 write:
    Cm    = 1.62834
    Cd    = -0.07993
    Cl    = 0.732651
    Cl(f) = 1.99467
    Cl(r) = -1.26202

forceCoeffs canard_11 write:
    Cm    = 1.82051
    Cd    = -0.07993
    Cl    = 0.732651
    Cl(f) = 2.18684
    Cl(r) = -1.45419

Time = 11s

smoothSolver:  Solving for Ux, Initial residual = 0.00672374, Final residual = 0.000391538, No Iterations 4
smoothSolver:  Solving for Uy, Initial residual = 0.0343059, Final residual = 0.00219404, No Iterations 4
smoothSolver:  Solving for Uz, Initial residual = 0.120111, Final residual = 0.00718338, No Iterations 4
GAMG:  Solving for p, Initial residual = 0.042199, Final residual = 0.0023673, No Iterations 3
time step continuity errors : sum local = 0.000474729, global = 4.04855e-05, cumulative = 8.67421e-05
smoothSolver:  Solving for nuTilda, Initial residual = 0.000904982, Final residual = 3.9469e-05, No Iterations 4
ExecutionTime = 191.432 s  ClockTime = 194 s

forceCoeffs canard_1 write:
    Cm    = -0.112914
    Cd    = -0.0681936
    Cl    = 0.694356
    Cl(f) = 0.234264
    Cl(r) = 0.460092

forceCoeffs canard_2 write:
    Cm    = 0.0692123
    Cd    = -0.0681936
    Cl    = 0.694356
    Cl(f) = 0.41639
    Cl(r) = 0.277966

forceCoeffs canard_3 write:
    Cm    = 0.251339
    Cd    = -0.0681936
    Cl    = 0.694356
    Cl(f) = 0.598517
    Cl(r) = 0.0958396

forceCoeffs canard_4 write:
    Cm    = 0.433465
    Cd    = -0.0681936
    Cl    = 0.694356
    Cl(f) = 0.780643
    Cl(r) = -0.0862866

forceCoeffs canard_5 write:
    Cm    = 0.615591
    Cd    = -0.0681936
    Cl    = 0.694356
    Cl(f) = 0.962769
    Cl(r) = -0.268413

forceCoeffs canard_6 write:
    Cm    = 0.797717
    Cd    = -0.0681936
    Cl    = 0.694356
    Cl(f) = 1.1449
    Cl(r) = -0.450539

forceCoeffs canard_7 write:
    Cm    = 0.979843
    Cd    = -0.0681936
    Cl    = 0.694356
    Cl(f) = 1.32702
    Cl(r) = -0.632665

forceCoeffs canard_8 write:
    Cm    = 1.16197
    Cd    = -0.0681936
    Cl    = 0.694356
    Cl(f) = 1.50915
    Cl(r) = -0.814792

forceCoeffs canard_9 write:
    Cm    = 1.3441
    Cd    = -0.0681936
    Cl    = 0.694356
    Cl(f) = 1.69127
    Cl(r) = -0.996918

forceCoeffs canard_10 write:
    Cm    = 1.52622
    Cd    = -0.0681936
    Cl    = 0.694356
    Cl(f) = 1.8734
    Cl(r) = -1.17904

forceCoeffs canard_11 write:
    Cm    = 1.70835
    Cd    = -0.0681936
    Cl    = 0.694356
    Cl(f) = 2.05553
    Cl(r) = -1.36117

Time = 12s

smoothSolver:  Solving for Ux, Initial residual = 0.00666047, Final residual = 0.000382223, No Iterations 4
smoothSolver:  Solving for Uy, Initial residual = 0.0245865, Final residual = 0.00154652, No Iterations 4
smoothSolver:  Solving for Uz, Initial residual = 0.0970629, Final residual = 0.00567976, No Iterations 4
GAMG:  Solving for p, Initial residual = 0.0503999, Final residual = 0.00280131, No Iterations 3
time step continuity errors : sum local = 0.000490192, global = 2.99841e-05, cumulative = 0.000116726
smoothSolver:  Solving for nuTilda, Initial residual = 0.000812568, Final residual = 3.7081e-05, No Iterations 4
ExecutionTime = 209.587 s  ClockTime = 212 s

forceCoeffs canard_1 write:
    Cm    = -0.143434
    Cd    = 0.0402897
    Cl    = 0.489992
    Cl(f) = 0.101562
    Cl(r) = 0.388431

forceCoeffs canard_2 write:
    Cm    = -0.0149119
    Cd    = 0.0402897
    Cl    = 0.489992
    Cl(f) = 0.230084
    Cl(r) = 0.259908

forceCoeffs canard_3 write:
    Cm    = 0.113611
    Cd    = 0.0402897
    Cl    = 0.489992
    Cl(f) = 0.358607
    Cl(r) = 0.131385

forceCoeffs canard_4 write:
    Cm    = 0.242133
    Cd    = 0.0402897
    Cl    = 0.489992
    Cl(f) = 0.487129
    Cl(r) = 0.00286288

forceCoeffs canard_5 write:
    Cm    = 0.370656
    Cd    = 0.0402897
    Cl    = 0.489992
    Cl(f) = 0.615652
    Cl(r) = -0.12566

forceCoeffs canard_6 write:
    Cm    = 0.499178
    Cd    = 0.0402897
    Cl    = 0.489992
    Cl(f) = 0.744174
    Cl(r) = -0.254182

forceCoeffs canard_7 write:
    Cm    = 0.627701
    Cd    = 0.0402897
    Cl    = 0.489992
    Cl(f) = 0.872697
    Cl(r) = -0.382705

forceCoeffs canard_8 write:
    Cm    = 0.756223
    Cd    = 0.0402897
    Cl    = 0.489992
    Cl(f) = 1.00122
    Cl(r) = -0.511227

forceCoeffs canard_9 write:
    Cm    = 0.884746
    Cd    = 0.0402897
    Cl    = 0.489992
    Cl(f) = 1.12974
    Cl(r) = -0.63975

forceCoeffs canard_10 write:
    Cm    = 1.01327
    Cd    = 0.0402897
    Cl    = 0.489992
    Cl(f) = 1.25826
    Cl(r) = -0.768272

forceCoeffs canard_11 write:
    Cm    = 1.14179
    Cd    = 0.0402897
    Cl    = 0.489992
    Cl(f) = 1.38679
    Cl(r) = -0.896795

Time = 13s

smoothSolver:  Solving for Ux, Initial residual = 0.00594777, Final residual = 0.000323991, No Iterations 4
smoothSolver:  Solving for Uy, Initial residual = 0.022054, Final residual = 0.00132898, No Iterations 4
smoothSolver:  Solving for Uz, Initial residual = 0.0894317, Final residual = 0.00524116, No Iterations 4
GAMG:  Solving for p, Initial residual = 0.0703896, Final residual = 0.00667945, No Iterations 2
time step continuity errors : sum local = 0.000693861, global = 2.69781e-05, cumulative = 0.000143704
smoothSolver:  Solving for nuTilda, Initial residual = 0.000739007, Final residual = 3.5208e-05, No Iterations 4
ExecutionTime = 221.138 s  ClockTime = 224 s

forceCoeffs canard_1 write:
    Cm    = -0.150438
    Cd    = 0.11072
    Cl    = 0.342012
    Cl(f) = 0.0205678
    Cl(r) = 0.321445

forceCoeffs canard_2 write:
    Cm    = -0.0607302
    Cd    = 0.11072
    Cl    = 0.342012
    Cl(f) = 0.110276
    Cl(r) = 0.231736

forceCoeffs canard_3 write:
    Cm    = 0.0289779
    Cd    = 0.11072
    Cl    = 0.342012
    Cl(f) = 0.199984
    Cl(r) = 0.142028

forceCoeffs canard_4 write:
    Cm    = 0.118686
    Cd    = 0.11072
    Cl    = 0.342012
    Cl(f) = 0.289692
    Cl(r) = 0.0523201

forceCoeffs canard_5 write:
    Cm    = 0.208394
    Cd    = 0.11072
    Cl    = 0.342012
    Cl(f) = 0.379401
    Cl(r) = -0.0373881

forceCoeffs canard_6 write:
    Cm    = 0.298102
    Cd    = 0.11072
    Cl    = 0.342012
    Cl(f) = 0.469109
    Cl(r) = -0.127096

forceCoeffs canard_7 write:
    Cm    = 0.387811
    Cd    = 0.11072
    Cl    = 0.342012
    Cl(f) = 0.558817
    Cl(r) = -0.216804

forceCoeffs canard_8 write:
    Cm    = 0.477519
    Cd    = 0.11072
    Cl    = 0.342012
    Cl(f) = 0.648525
    Cl(r) = -0.306513

forceCoeffs canard_9 write:
    Cm    = 0.567227
    Cd    = 0.11072
    Cl    = 0.342012
    Cl(f) = 0.738233
    Cl(r) = -0.396221

forceCoeffs canard_10 write:
    Cm    = 0.656935
    Cd    = 0.11072
    Cl    = 0.342012
    Cl(f) = 0.827941
    Cl(r) = -0.485929

forceCoeffs canard_11 write:
    Cm    = 0.746643
    Cd    = 0.11072
    Cl    = 0.342012
    Cl(f) = 0.91765
    Cl(r) = -0.575637

Time = 14s

smoothSolver:  Solving for Ux, Initial residual = 0.00509874, Final residual = 0.000285419, No Iterations 4
smoothSolver:  Solving for Uy, Initial residual = 0.0250551, Final residual = 0.00152623, No Iterations 4
smoothSolver:  Solving for Uz, Initial residual = 0.0877081, Final residual = 0.00520977, No Iterations 4
GAMG:  Solving for p, Initial residual = 0.12716, Final residual = 0.0126157, No Iterations 2
time step continuity errors : sum local = 0.000706393, global = -2.70115e-05, cumulative = 0.000116693
smoothSolver:  Solving for nuTilda, Initial residual = 0.000678739, Final residual = 3.35709e-05, No Iterations 4
ExecutionTime = 234.713 s  ClockTime = 237 s

forceCoeffs canard_1 write:
    Cm    = -0.139052
    Cd    = 0.121564
    Cl    = 0.325593
    Cl(f) = 0.0237446
    Cl(r) = 0.301848

forceCoeffs canard_2 write:
    Cm    = -0.0536504
    Cd    = 0.121564
    Cl    = 0.325593
    Cl(f) = 0.109146
    Cl(r) = 0.216447

forceCoeffs canard_3 write:
    Cm    = 0.031751
    Cd    = 0.121564
    Cl    = 0.325593
    Cl(f) = 0.194547
    Cl(r) = 0.131045

forceCoeffs canard_4 write:
    Cm    = 0.117152
    Cd    = 0.121564
    Cl    = 0.325593
    Cl(f) = 0.279949
    Cl(r) = 0.045644

forceCoeffs canard_5 write:
    Cm    = 0.202554
    Cd    = 0.121564
    Cl    = 0.325593
    Cl(f) = 0.36535
    Cl(r) = -0.0397574

forceCoeffs canard_6 write:
    Cm    = 0.287955
    Cd    = 0.121564
    Cl    = 0.325593
    Cl(f) = 0.450752
    Cl(r) = -0.125159

forceCoeffs canard_7 write:
    Cm    = 0.373357
    Cd    = 0.121564
    Cl    = 0.325593
    Cl(f) = 0.536153
    Cl(r) = -0.21056

forceCoeffs canard_8 write:
    Cm    = 0.458758
    Cd    = 0.121564
    Cl    = 0.325593
    Cl(f) = 0.621554
    Cl(r) = -0.295962

forceCoeffs canard_9 write:
    Cm    = 0.544159
    Cd    = 0.121564
    Cl    = 0.325593
    Cl(f) = 0.706956
    Cl(r) = -0.381363

forceCoeffs canard_10 write:
    Cm    = 0.629561
    Cd    = 0.121564
    Cl    = 0.325593
    Cl(f) = 0.792357
    Cl(r) = -0.466764

forceCoeffs canard_11 write:
    Cm    = 0.714962
    Cd    = 0.121564
    Cl    = 0.325593
    Cl(f) = 0.877759
    Cl(r) = -0.552166

Time = 15s

smoothSolver:  Solving for Ux, Initial residual = 0.00439445, Final residual = 0.000242262, No Iterations 4
smoothSolver:  Solving for Uy, Initial residual = 0.0234479, Final residual = 0.00137752, No Iterations 4
smoothSolver:  Solving for Uz, Initial residual = 0.0745528, Final residual = 0.00424328, No Iterations 4
GAMG:  Solving for p, Initial residual = 0.139753, Final residual = 0.00774471, No Iterations 3
time step continuity errors : sum local = 0.000393355, global = -3.85732e-05, cumulative = 7.81195e-05
smoothSolver:  Solving for nuTilda, Initial residual = 0.000628696, Final residual = 3.21494e-05, No Iterations 4
ExecutionTime = 248.824 s  ClockTime = 252 s

forceCoeffs canard_1 write:
    Cm    = -0.129543
    Cd    = 0.10084
    Cl    = 0.425566
    Cl(f) = 0.0832399
    Cl(r) = 0.342326

forceCoeffs canard_2 write:
    Cm    = -0.0179193
    Cd    = 0.10084
    Cl    = 0.425566
    Cl(f) = 0.194864
    Cl(r) = 0.230703

forceCoeffs canard_3 write:
    Cm    = 0.0937047
    Cd    = 0.10084
    Cl    = 0.425566
    Cl(f) = 0.306488
    Cl(r) = 0.119079

forceCoeffs canard_4 write:
    Cm    = 0.205329
    Cd    = 0.10084
    Cl    = 0.425566
    Cl(f) = 0.418112
    Cl(r) = 0.00745454

forceCoeffs canard_5 write:
    Cm    = 0.316953
    Cd    = 0.10084
    Cl    = 0.425566
    Cl(f) = 0.529736
    Cl(r) = -0.104169

forceCoeffs canard_6 write:
    Cm    = 0.428577
    Cd    = 0.10084
    Cl    = 0.425566
    Cl(f) = 0.64136
    Cl(r) = -0.215793

forceCoeffs canard_7 write:
    Cm    = 0.540201
    Cd    = 0.10084
    Cl    = 0.425566
    Cl(f) = 0.752984
    Cl(r) = -0.327417

forceCoeffs canard_8 write:
    Cm    = 0.651825
    Cd    = 0.10084
    Cl    = 0.425566
    Cl(f) = 0.864608
    Cl(r) = -0.439041

forceCoeffs canard_9 write:
    Cm    = 0.763449
    Cd    = 0.10084
    Cl    = 0.425566
    Cl(f) = 0.976232
    Cl(r) = -0.550665

forceCoeffs canard_10 write:
    Cm    = 0.875073
    Cd    = 0.10084
    Cl    = 0.425566
    Cl(f) = 1.08786
    Cl(r) = -0.662289

forceCoeffs canard_11 write:
    Cm    = 0.986697
    Cd    = 0.10084
    Cl    = 0.425566
    Cl(f) = 1.19948
    Cl(r) = -0.773913

Time = 16s

smoothSolver:  Solving for Ux, Initial residual = 0.00429546, Final residual = 0.000227225, No Iterations 4
smoothSolver:  Solving for Uy, Initial residual = 0.0227497, Final residual = 0.00133025, No Iterations 4
smoothSolver:  Solving for Uz, Initial residual = 0.0657036, Final residual = 0.00367343, No Iterations 4
GAMG:  Solving for p, Initial residual = 0.0733389, Final residual = 0.00708078, No Iterations 2
time step continuity errors : sum local = 0.000579243, global = -2.55385e-05, cumulative = 5.2581e-05
smoothSolver:  Solving for nuTilda, Initial residual = 0.0005886, Final residual = 3.09595e-05, No Iterations 4
ExecutionTime = 262.135 s  ClockTime = 265 s

forceCoeffs canard_1 write:
    Cm    = -0.131858
    Cd    = 0.0830084
    Cl    = 0.52504
    Cl(f) = 0.130662
    Cl(r) = 0.394378

forceCoeffs canard_2 write:
    Cm    = 0.00585698
    Cd    = 0.0830084
    Cl    = 0.52504
    Cl(f) = 0.268377
    Cl(r) = 0.256663

forceCoeffs canard_3 write:
    Cm    = 0.143572
    Cd    = 0.0830084
    Cl    = 0.52504
    Cl(f) = 0.406092
    Cl(r) = 0.118948

forceCoeffs canard_4 write:
    Cm    = 0.281288
    Cd    = 0.0830084
    Cl    = 0.52504
    Cl(f) = 0.543808
    Cl(r) = -0.0187678

forceCoeffs canard_5 write:
    Cm    = 0.419003
    Cd    = 0.0830084
    Cl    = 0.52504
    Cl(f) = 0.681523
    Cl(r) = -0.156483

forceCoeffs canard_6 write:
    Cm    = 0.556719
    Cd    = 0.0830084
    Cl    = 0.52504
    Cl(f) = 0.819239
    Cl(r) = -0.294199

forceCoeffs canard_7 write:
    Cm    = 0.694434
    Cd    = 0.0830084
    Cl    = 0.52504
    Cl(f) = 0.956954
    Cl(r) = -0.431914

forceCoeffs canard_8 write:
    Cm    = 0.832149
    Cd    = 0.0830084
    Cl    = 0.52504
    Cl(f) = 1.09467
    Cl(r) = -0.569629

forceCoeffs canard_9 write:
    Cm    = 0.969865
    Cd    = 0.0830084
    Cl    = 0.52504
    Cl(f) = 1.23238
    Cl(r) = -0.707345

forceCoeffs canard_10 write:
    Cm    = 1.10758
    Cd    = 0.0830084
    Cl    = 0.52504
    Cl(f) = 1.3701
    Cl(r) = -0.84506

forceCoeffs canard_11 write:
    Cm    = 1.2453
    Cd    = 0.0830084
    Cl    = 0.52504
    Cl(f) = 1.50782
    Cl(r) = -0.982776

Time = 17s

smoothSolver:  Solving for Ux, Initial residual = 0.0042069, Final residual = 0.000219296, No Iterations 4
smoothSolver:  Solving for Uy, Initial residual = 0.0211849, Final residual = 0.00126051, No Iterations 4
smoothSolver:  Solving for Uz, Initial residual = 0.063004, Final residual = 0.00362091, No Iterations 4
GAMG:  Solving for p, Initial residual = 0.0514806, Final residual = 0.00490901, No Iterations 2
time step continuity errors : sum local = 0.000561583, global = -2.25323e-05, cumulative = 3.00488e-05
smoothSolver:  Solving for nuTilda, Initial residual = 0.000555838, Final residual = 2.99164e-05, No Iterations 4
ExecutionTime = 275.167 s  ClockTime = 278 s

forceCoeffs canard_1 write:
    Cm    = -0.138064
    Cd    = 0.0756042
    Cl    = 0.571195
    Cl(f) = 0.147534
    Cl(r) = 0.423661

forceCoeffs canard_2 write:
    Cm    = 0.0117578
    Cd    = 0.0756042
    Cl    = 0.571195
    Cl(f) = 0.297355
    Cl(r) = 0.273839

forceCoeffs canard_3 write:
    Cm    = 0.161579
    Cd    = 0.0756042
    Cl    = 0.571195
    Cl(f) = 0.447177
    Cl(r) = 0.124018

forceCoeffs canard_4 write:
    Cm    = 0.311401
    Cd    = 0.0756042
    Cl    = 0.571195
    Cl(f) = 0.596998
    Cl(r) = -0.0258035

forceCoeffs canard_5 write:
    Cm    = 0.461222
    Cd    = 0.0756042
    Cl    = 0.571195
    Cl(f) = 0.74682
    Cl(r) = -0.175625

forceCoeffs canard_6 write:
    Cm    = 0.611044
    Cd    = 0.0756042
    Cl    = 0.571195
    Cl(f) = 0.896641
    Cl(r) = -0.325447

forceCoeffs canard_7 write:
    Cm    = 0.760865
    Cd    = 0.0756042
    Cl    = 0.571195
    Cl(f) = 1.04646
    Cl(r) = -0.475268

forceCoeffs canard_8 write:
    Cm    = 0.910687
    Cd    = 0.0756042
    Cl    = 0.571195
    Cl(f) = 1.19628
    Cl(r) = -0.62509

forceCoeffs canard_9 write:
    Cm    = 1.06051
    Cd    = 0.0756042
    Cl    = 0.571195
    Cl(f) = 1.34611
    Cl(r) = -0.774911

forceCoeffs canard_10 write:
    Cm    = 1.21033
    Cd    = 0.0756042
    Cl    = 0.571195
    Cl(f) = 1.49593
    Cl(r) = -0.924733

forceCoeffs canard_11 write:
    Cm    = 1.36015
    Cd    = 0.0756042
    Cl    = 0.571195
    Cl(f) = 1.64575
    Cl(r) = -1.07455

Time = 18s

smoothSolver:  Solving for Ux, Initial residual = 0.00371406, Final residual = 0.000196717, No Iterations 4
smoothSolver:  Solving for Uy, Initial residual = 0.0171495, Final residual = 0.000984351, No Iterations 4
smoothSolver:  Solving for Uz, Initial residual = 0.0571175, Final residual = 0.00327835, No Iterations 4
GAMG:  Solving for p, Initial residual = 0.044009, Final residual = 0.00224131, No Iterations 3
time step continuity errors : sum local = 0.000294085, global = 1.327e-05, cumulative = 4.33188e-05
smoothSolver:  Solving for nuTilda, Initial residual = 0.000533176, Final residual = 2.91395e-05, No Iterations 4
ExecutionTime = 288.509 s  ClockTime = 291 s

forceCoeffs canard_1 write:
    Cm    = -0.135777
    Cd    = 0.0705619
    Cl    = 0.557645
    Cl(f) = 0.143046
    Cl(r) = 0.414599

forceCoeffs canard_2 write:
    Cm    = 0.0104911
    Cd    = 0.0705619
    Cl    = 0.557645
    Cl(f) = 0.289314
    Cl(r) = 0.268332

forceCoeffs canard_3 write:
    Cm    = 0.156759
    Cd    = 0.0705619
    Cl    = 0.557645
    Cl(f) = 0.435581
    Cl(r) = 0.122064

forceCoeffs canard_4 write:
    Cm    = 0.303026
    Cd    = 0.0705619
    Cl    = 0.557645
    Cl(f) = 0.581849
    Cl(r) = -0.0242037

forceCoeffs canard_5 write:
    Cm    = 0.449294
    Cd    = 0.0705619
    Cl    = 0.557645
    Cl(f) = 0.728117
    Cl(r) = -0.170471

forceCoeffs canard_6 write:
    Cm    = 0.595562
    Cd    = 0.0705619
    Cl    = 0.557645
    Cl(f) = 0.874384
    Cl(r) = -0.316739

forceCoeffs canard_7 write:
    Cm    = 0.741829
    Cd    = 0.0705619
    Cl    = 0.557645
    Cl(f) = 1.02065
    Cl(r) = -0.463007

forceCoeffs canard_8 write:
    Cm    = 0.888097
    Cd    = 0.0705619
    Cl    = 0.557645
    Cl(f) = 1.16692
    Cl(r) = -0.609274

forceCoeffs canard_9 write:
    Cm    = 1.03436
    Cd    = 0.0705619
    Cl    = 0.557645
    Cl(f) = 1.31319
    Cl(r) = -0.755542

forceCoeffs canard_10 write:
    Cm    = 1.18063
    Cd    = 0.0705619
    Cl    = 0.557645
    Cl(f) = 1.45945
    Cl(r) = -0.901809

forceCoeffs canard_11 write:
    Cm    = 1.3269
    Cd    = 0.0705619
    Cl    = 0.557645
    Cl(f) = 1.60572
    Cl(r) = -1.04808

Time = 19s

smoothSolver:  Solving for Ux, Initial residual = 0.0036743, Final residual = 0.000195386, No Iterations 4
smoothSolver:  Solving for Uy, Initial residual = 0.0167798, Final residual = 0.000962067, No Iterations 4
smoothSolver:  Solving for Uz, Initial residual = 0.05721, Final residual = 0.00322349, No Iterations 4
GAMG:  Solving for p, Initial residual = 0.0391853, Final residual = 0.00359636, No Iterations 2
time step continuity errors : sum local = 0.000461839, global = 1.9974e-05, cumulative = 6.32928e-05
smoothSolver:  Solving for nuTilda, Initial residual = 0.000514535, Final residual = 2.84834e-05, No Iterations 4
ExecutionTime = 300.433 s  ClockTime = 303 s

forceCoeffs canard_1 write:
    Cm    = -0.122667
    Cd    = 0.0657881
    Cl    = 0.511996
    Cl(f) = 0.133331
    Cl(r) = 0.378665

forceCoeffs canard_2 write:
    Cm    = 0.0116268
    Cd    = 0.0657881
    Cl    = 0.511996
    Cl(f) = 0.267625
    Cl(r) = 0.244371

forceCoeffs canard_3 write:
    Cm    = 0.145921
    Cd    = 0.0657881
    Cl    = 0.511996
    Cl(f) = 0.401919
    Cl(r) = 0.110077

forceCoeffs canard_4 write:
    Cm    = 0.280215
    Cd    = 0.0657881
    Cl    = 0.511996
    Cl(f) = 0.536213
    Cl(r) = -0.0242168

forceCoeffs canard_5 write:
    Cm    = 0.414509
    Cd    = 0.0657881
    Cl    = 0.511996
    Cl(f) = 0.670507
    Cl(r) = -0.158511

forceCoeffs canard_6 write:
    Cm    = 0.548803
    Cd    = 0.0657881
    Cl    = 0.511996
    Cl(f) = 0.804801
    Cl(r) = -0.292805

forceCoeffs canard_7 write:
    Cm    = 0.683097
    Cd    = 0.0657881
    Cl    = 0.511996
    Cl(f) = 0.939095
    Cl(r) = -0.427099

forceCoeffs canard_8 write:
    Cm    = 0.817391
    Cd    = 0.0657881
    Cl    = 0.511996
    Cl(f) = 1.07339
    Cl(r) = -0.561393

forceCoeffs canard_9 write:
    Cm    = 0.951685
    Cd    = 0.0657881
    Cl    = 0.511996
    Cl(f) = 1.20768
    Cl(r) = -0.695687

forceCoeffs canard_10 write:
    Cm    = 1.08598
    Cd    = 0.0657881
    Cl    = 0.511996
    Cl(f) = 1.34198
    Cl(r) = -0.829981

forceCoeffs canard_11 write:
    Cm    = 1.22027
    Cd    = 0.0657881
    Cl    = 0.511996
    Cl(f) = 1.47627
    Cl(r) = -0.964275

Time = 20s

smoothSolver:  Solving for Ux, Initial residual = 0.00358209, Final residual = 0.000186383, No Iterations 4
smoothSolver:  Solving for Uy, Initial residual = 0.0170816, Final residual = 0.000974703, No Iterations 4
smoothSolver:  Solving for Uz, Initial residual = 0.0538676, Final residual = 0.00297525, No Iterations 4
GAMG:  Solving for p, Initial residual = 0.043118, Final residual = 0.00429402, No Iterations 2
time step continuity errors : sum local = 0.000487275, global = 1.89666e-05, cumulative = 8.22594e-05
smoothSolver:  Solving for nuTilda, Initial residual = 0.000501058, Final residual = 2.79503e-05, No Iterations 4
ExecutionTime = 324.596 s  ClockTime = 328 s

forceCoeffs canard_1 write:
    Cm    = -0.106121
    Cd    = 0.0609298
    Cl    = 0.471883
    Cl(f) = 0.12982
    Cl(r) = 0.342062

forceCoeffs canard_2 write:
    Cm    = 0.0176514
    Cd    = 0.0609298
    Cl    = 0.471883
    Cl(f) = 0.253593
    Cl(r) = 0.21829

forceCoeffs canard_3 write:
    Cm    = 0.141424
    Cd    = 0.0609298
    Cl    = 0.471883
    Cl(f) = 0.377365
    Cl(r) = 0.0945174

forceCoeffs canard_4 write:
    Cm    = 0.265196
    Cd    = 0.0609298
    Cl    = 0.471883
    Cl(f) = 0.501138
    Cl(r) = -0.0292551

forceCoeffs canard_5 write:
    Cm    = 0.388969
    Cd    = 0.0609298
    Cl    = 0.471883
    Cl(f) = 0.62491
    Cl(r) = -0.153028

forceCoeffs canard_6 write:
    Cm    = 0.512741
    Cd    = 0.0609298
    Cl    = 0.471883
    Cl(f) = 0.748683
    Cl(r) = -0.2768

forceCoeffs canard_7 write:
    Cm    = 0.636514
    Cd    = 0.0609298
    Cl    = 0.471883
    Cl(f) = 0.872455
    Cl(r) = -0.400573

forceCoeffs canard_8 write:
    Cm    = 0.760286
    Cd    = 0.0609298
    Cl    = 0.471883
    Cl(f) = 0.996228
    Cl(r) = -0.524345

forceCoeffs canard_9 write:
    Cm    = 0.884059
    Cd    = 0.0609298
    Cl    = 0.471883
    Cl(f) = 1.12
    Cl(r) = -0.648118

forceCoeffs canard_10 write:
    Cm    = 1.00783
    Cd    = 0.0609298
    Cl    = 0.471883
    Cl(f) = 1.24377
    Cl(r) = -0.77189

forceCoeffs canard_11 write:
    Cm    = 1.1316
    Cd    = 0.0609298
    Cl    = 0.471883
    Cl(f) = 1.36755
    Cl(r) = -0.895663

Time = 21s

smoothSolver:  Solving for Ux, Initial residual = 0.00329546, Final residual = 0.000155741, No Iterations 4
smoothSolver:  Solving for Uy, Initial residual = 0.0159858, Final residual = 0.00086405, No Iterations 4
smoothSolver:  Solving for Uz, Initial residual = 0.0454745, Final residual = 0.00241604, No Iterations 4
GAMG:  Solving for p, Initial residual = 0.0468332, Final residual = 0.00234431, No Iterations 3
time step continuity errors : sum local = 0.000231082, global = 1.42989e-05, cumulative = 9.65583e-05
smoothSolver:  Solving for nuTilda, Initial residual = 0.000493613, Final residual = 2.7431e-05, No Iterations 4
ExecutionTime = 338.614 s  ClockTime = 342 s

forceCoeffs canard_1 write:
    Cm    = -0.0955905
    Cd    = 0.0610711
    Cl    = 0.455095
    Cl(f) = 0.131957
    Cl(r) = 0.323138

forceCoeffs canard_2 write:
    Cm    = 0.0237788
    Cd    = 0.0610711
    Cl    = 0.455095
    Cl(f) = 0.251326
    Cl(r) = 0.203769

forceCoeffs canard_3 write:
    Cm    = 0.143148
    Cd    = 0.0610711
    Cl    = 0.455095
    Cl(f) = 0.370696
    Cl(r) = 0.0843996

forceCoeffs canard_4 write:
    Cm    = 0.262517
    Cd    = 0.0610711
    Cl    = 0.455095
    Cl(f) = 0.490065
    Cl(r) = -0.0349696

forceCoeffs canard_5 write:
    Cm    = 0.381886
    Cd    = 0.0610711
    Cl    = 0.455095
    Cl(f) = 0.609434
    Cl(r) = -0.154339

forceCoeffs canard_6 write:
    Cm    = 0.501256
    Cd    = 0.0610711
    Cl    = 0.455095
    Cl(f) = 0.728803
    Cl(r) = -0.273708

forceCoeffs canard_7 write:
    Cm    = 0.620625
    Cd    = 0.0610711
    Cl    = 0.455095
    Cl(f) = 0.848173
    Cl(r) = -0.393077

forceCoeffs canard_8 write:
    Cm    = 0.739994
    Cd    = 0.0610711
    Cl    = 0.455095
    Cl(f) = 0.967542
    Cl(r) = -0.512447

forceCoeffs canard_9 write:
    Cm    = 0.859363
    Cd    = 0.0610711
    Cl    = 0.455095
    Cl(f) = 1.08691
    Cl(r) = -0.631816

forceCoeffs canard_10 write:
    Cm    = 0.978733
    Cd    = 0.0610711
    Cl    = 0.455095
    Cl(f) = 1.20628
    Cl(r) = -0.751185

forceCoeffs canard_11 write:
    Cm    = 1.0981
    Cd    = 0.0610711
    Cl    = 0.455095
    Cl(f) = 1.32565
    Cl(r) = -0.870554

Time = 22s

smoothSolver:  Solving for Ux, Initial residual = 0.00304943, Final residual = 0.000149795, No Iterations 4
smoothSolver:  Solving for Uy, Initial residual = 0.0163786, Final residual = 0.000891054, No Iterations 4
smoothSolver:  Solving for Uz, Initial residual = 0.0427028, Final residual = 0.00234276, No Iterations 4
GAMG:  Solving for p, Initial residual = 0.045307, Final residual = 0.0037689, No Iterations 2
time step continuity errors : sum local = 0.000345323, global = -4.79116e-06, cumulative = 9.17671e-05
smoothSolver:  Solving for nuTilda, Initial residual = 0.000486711, Final residual = 2.70058e-05, No Iterations 4
ExecutionTime = 350.485 s  ClockTime = 354 s

forceCoeffs canard_1 write:
    Cm    = -0.0992057
    Cd    = 0.0668457
    Cl    = 0.470411
    Cl(f) = 0.136
    Cl(r) = 0.334411

forceCoeffs canard_2 write:
    Cm    = 0.0241808
    Cd    = 0.0668457
    Cl    = 0.470411
    Cl(f) = 0.259386
    Cl(r) = 0.211025

forceCoeffs canard_3 write:
    Cm    = 0.147567
    Cd    = 0.0668457
    Cl    = 0.470411
    Cl(f) = 0.382773
    Cl(r) = 0.0876382

forceCoeffs canard_4 write:
    Cm    = 0.270954
    Cd    = 0.0668457
    Cl    = 0.470411
    Cl(f) = 0.506159
    Cl(r) = -0.0357483

forceCoeffs canard_5 write:
    Cm    = 0.39434
    Cd    = 0.0668457
    Cl    = 0.470411
    Cl(f) = 0.629546
    Cl(r) = -0.159135

forceCoeffs canard_6 write:
    Cm    = 0.517727
    Cd    = 0.0668457
    Cl    = 0.470411
    Cl(f) = 0.752932
    Cl(r) = -0.282521

forceCoeffs canard_7 write:
    Cm    = 0.641113
    Cd    = 0.0668457
    Cl    = 0.470411
    Cl(f) = 0.876319
    Cl(r) = -0.405908

forceCoeffs canard_8 write:
    Cm    = 0.7645
    Cd    = 0.0668457
    Cl    = 0.470411
    Cl(f) = 0.999705
    Cl(r) = -0.529294

forceCoeffs canard_9 write:
    Cm    = 0.887886
    Cd    = 0.0668457
    Cl    = 0.470411
    Cl(f) = 1.12309
    Cl(r) = -0.652681

forceCoeffs canard_10 write:
    Cm    = 1.01127
    Cd    = 0.0668457
    Cl    = 0.470411
    Cl(f) = 1.24648
    Cl(r) = -0.776067

forceCoeffs canard_11 write:
    Cm    = 1.13466
    Cd    = 0.0668457
    Cl    = 0.470411
    Cl(f) = 1.36986
    Cl(r) = -0.899454

Time = 23s

smoothSolver:  Solving for Ux, Initial residual = 0.00282221, Final residual = 0.000145711, No Iterations 4
smoothSolver:  Solving for Uy, Initial residual = 0.0148094, Final residual = 0.000821239, No Iterations 4
smoothSolver:  Solving for Uz, Initial residual = 0.0386898, Final residual = 0.00214659, No Iterations 4
GAMG:  Solving for p, Initial residual = 0.0431635, Final residual = 0.00228025, No Iterations 3
time step continuity errors : sum local = 0.000220593, global = -2.25844e-05, cumulative = 6.91828e-05
smoothSolver:  Solving for nuTilda, Initial residual = 0.000476409, Final residual = 2.6564e-05, No Iterations 4
ExecutionTime = 362.821 s  ClockTime = 366 s

forceCoeffs canard_1 write:
    Cm    = -0.111373
    Cd    = 0.0770783
    Cl    = 0.500901
    Cl(f) = 0.139078
    Cl(r) = 0.361824

forceCoeffs canard_2 write:
    Cm    = 0.0200109
    Cd    = 0.0770783
    Cl    = 0.500901
    Cl(f) = 0.270462
    Cl(r) = 0.23044

forceCoeffs canard_3 write:
    Cm    = 0.151395
    Cd    = 0.0770783
    Cl    = 0.500901
    Cl(f) = 0.401846
    Cl(r) = 0.0990558

forceCoeffs canard_4 write:
    Cm    = 0.282779
    Cd    = 0.0770783
    Cl    = 0.500901
    Cl(f) = 0.533229
    Cl(r) = -0.0323281

forceCoeffs canard_5 write:
    Cm    = 0.414163
    Cd    = 0.0770783
    Cl    = 0.500901
    Cl(f) = 0.664613
    Cl(r) = -0.163712

forceCoeffs canard_6 write:
    Cm    = 0.545547
    Cd    = 0.0770783
    Cl    = 0.500901
    Cl(f) = 0.795997
    Cl(r) = -0.295096

forceCoeffs canard_7 write:
    Cm    = 0.676931
    Cd    = 0.0770783
    Cl    = 0.500901
    Cl(f) = 0.927381
    Cl(r) = -0.42648

forceCoeffs canard_8 write:
    Cm    = 0.808315
    Cd    = 0.0770783
    Cl    = 0.500901
    Cl(f) = 1.05877
    Cl(r) = -0.557864

forceCoeffs canard_9 write:
    Cm    = 0.939699
    Cd    = 0.0770783
    Cl    = 0.500901
    Cl(f) = 1.19015
    Cl(r) = -0.689248

forceCoeffs canard_10 write:
    Cm    = 1.07108
    Cd    = 0.0770783
    Cl    = 0.500901
    Cl(f) = 1.32153
    Cl(r) = -0.820632

forceCoeffs canard_11 write:
    Cm    = 1.20247
    Cd    = 0.0770783
    Cl    = 0.500901
    Cl(f) = 1.45292
    Cl(r) = -0.952016

Time = 24s

smoothSolver:  Solving for Ux, Initial residual = 0.00276182, Final residual = 0.000134464, No Iterations 4
smoothSolver:  Solving for Uy, Initial residual = 0.01254, Final residual = 0.000683903, No Iterations 4
smoothSolver:  Solving for Uz, Initial residual = 0.0327804, Final residual = 0.00173971, No Iterations 4
GAMG:  Solving for p, Initial residual = 0.0349936, Final residual = 0.00329065, No Iterations 2
time step continuity errors : sum local = 0.000353422, global = -8.95405e-06, cumulative = 6.02287e-05
smoothSolver:  Solving for nuTilda, Initial residual = 0.000467156, Final residual = 2.62272e-05, No Iterations 4
ExecutionTime = 375.443 s  ClockTime = 379 s

forceCoeffs canard_1 write:
    Cm    = -0.114834
    Cd    = 0.0794791
    Cl    = 0.513043
    Cl(f) = 0.141688
    Cl(r) = 0.371356

forceCoeffs canard_2 write:
    Cm    = 0.0197348
    Cd    = 0.0794791
    Cl    = 0.513043
    Cl(f) = 0.276256
    Cl(r) = 0.236787

forceCoeffs canard_3 write:
    Cm    = 0.154304
    Cd    = 0.0794791
    Cl    = 0.513043
    Cl(f) = 0.410825
    Cl(r) = 0.102218

forceCoeffs canard_4 write:
    Cm    = 0.288872
    Cd    = 0.0794791
    Cl    = 0.513043
    Cl(f) = 0.545394
    Cl(r) = -0.0323506

forceCoeffs canard_5 write:
    Cm    = 0.423441
    Cd    = 0.0794791
    Cl    = 0.513043
    Cl(f) = 0.679963
    Cl(r) = -0.166919

forceCoeffs canard_6 write:
    Cm    = 0.55801
    Cd    = 0.0794791
    Cl    = 0.513043
    Cl(f) = 0.814531
    Cl(r) = -0.301488

forceCoeffs canard_7 write:
    Cm    = 0.692578
    Cd    = 0.0794791
    Cl    = 0.513043
    Cl(f) = 0.9491
    Cl(r) = -0.436057

forceCoeffs canard_8 write:
    Cm    = 0.827147
    Cd    = 0.0794791
    Cl    = 0.513043
    Cl(f) = 1.08367
    Cl(r) = -0.570625

forceCoeffs canard_9 write:
    Cm    = 0.961716
    Cd    = 0.0794791
    Cl    = 0.513043
    Cl(f) = 1.21824
    Cl(r) = -0.705194

forceCoeffs canard_10 write:
    Cm    = 1.09628
    Cd    = 0.0794791
    Cl    = 0.513043
    Cl(f) = 1.35281
    Cl(r) = -0.839763

forceCoeffs canard_11 write:
    Cm    = 1.23085
    Cd    = 0.0794791
    Cl    = 0.513043
    Cl(f) = 1.48737
    Cl(r) = -0.974332

Time = 25s

smoothSolver:  Solving for Ux, Initial residual = 0.00284765, Final residual = 0.000131326, No Iterations 4
smoothSolver:  Solving for Uy, Initial residual = 0.0120571, Final residual = 0.000650557, No Iterations 4
smoothSolver:  Solving for Uz, Initial residual = 0.0321911, Final residual = 0.00169796, No Iterations 4
GAMG:  Solving for p, Initial residual = 0.0311073, Final residual = 0.00281878, No Iterations 2
time step continuity errors : sum local = 0.000315425, global = -4.1917e-06, cumulative = 5.6037e-05
smoothSolver:  Solving for nuTilda, Initial residual = 0.000461912, Final residual = 2.59191e-05, No Iterations 4
ExecutionTime = 387.467 s  ClockTime = 391 s

forceCoeffs canard_1 write:
    Cm    = -0.110051
    Cd    = 0.0744962
    Cl    = 0.514364
    Cl(f) = 0.147132
    Cl(r) = 0.367233

forceCoeffs canard_2 write:
    Cm    = 0.0248646
    Cd    = 0.0744962
    Cl    = 0.514364
    Cl(f) = 0.282047
    Cl(r) = 0.232318

forceCoeffs canard_3 write:
    Cm    = 0.15978
    Cd    = 0.0744962
    Cl    = 0.514364
    Cl(f) = 0.416962
    Cl(r) = 0.0974023

forceCoeffs canard_4 write:
    Cm    = 0.294695
    Cd    = 0.0744962
    Cl    = 0.514364
    Cl(f) = 0.551877
    Cl(r) = -0.0375129

forceCoeffs canard_5 write:
    Cm    = 0.42961
    Cd    = 0.0744962
    Cl    = 0.514364
    Cl(f) = 0.686793
    Cl(r) = -0.172428

forceCoeffs canard_6 write:
    Cm    = 0.564526
    Cd    = 0.0744962
    Cl    = 0.514364
    Cl(f) = 0.821708
    Cl(r) = -0.307343

forceCoeffs canard_7 write:
    Cm    = 0.699441
    Cd    = 0.0744962
    Cl    = 0.514364
    Cl(f) = 0.956623
    Cl(r) = -0.442259

forceCoeffs canard_8 write:
    Cm    = 0.834356
    Cd    = 0.0744962
    Cl    = 0.514364
    Cl(f) = 1.09154
    Cl(r) = -0.577174

forceCoeffs canard_9 write:
    Cm    = 0.969271
    Cd    = 0.0744962
    Cl    = 0.514364
    Cl(f) = 1.22645
    Cl(r) = -0.712089

forceCoeffs canard_10 write:
    Cm    = 1.10419
    Cd    = 0.0744962
    Cl    = 0.514364
    Cl(f) = 1.36137
    Cl(r) = -0.847004

forceCoeffs canard_11 write:
    Cm    = 1.2391
    Cd    = 0.0744962
    Cl    = 0.514364
    Cl(f) = 1.49628
    Cl(r) = -0.98192

Time = 26s

smoothSolver:  Solving for Ux, Initial residual = 0.00271883, Final residual = 0.000125372, No Iterations 4
smoothSolver:  Solving for Uy, Initial residual = 0.0120017, Final residual = 0.000656627, No Iterations 4
smoothSolver:  Solving for Uz, Initial residual = 0.03242, Final residual = 0.00173942, No Iterations 4
GAMG:  Solving for p, Initial residual = 0.03074, Final residual = 0.00280759, No Iterations 2
time step continuity errors : sum local = 0.000310746, global = -8.01068e-07, cumulative = 5.5236e-05
smoothSolver:  Solving for nuTilda, Initial residual = 0.00045855, Final residual = 2.56295e-05, No Iterations 4
ExecutionTime = 399.78 s  ClockTime = 403 s

forceCoeffs canard_1 write:
    Cm    = -0.100707
    Cd    = 0.0657558
    Cl    = 0.510032
    Cl(f) = 0.154309
    Cl(r) = 0.355723

forceCoeffs canard_2 write:
    Cm    = 0.0330714
    Cd    = 0.0657558
    Cl    = 0.510032
    Cl(f) = 0.288087
    Cl(r) = 0.221945

forceCoeffs canard_3 write:
    Cm    = 0.16685
    Cd    = 0.0657558
    Cl    = 0.510032
    Cl(f) = 0.421866
    Cl(r) = 0.0881657

forceCoeffs canard_4 write:
    Cm    = 0.300629
    Cd    = 0.0657558
    Cl    = 0.510032
    Cl(f) = 0.555645
    Cl(r) = -0.0456132

forceCoeffs canard_5 write:
    Cm    = 0.434408
    Cd    = 0.0657558
    Cl    = 0.510032
    Cl(f) = 0.689424
    Cl(r) = -0.179392

forceCoeffs canard_6 write:
    Cm    = 0.568187
    Cd    = 0.0657558
    Cl    = 0.510032
    Cl(f) = 0.823203
    Cl(r) = -0.313171

forceCoeffs canard_7 write:
    Cm    = 0.701966
    Cd    = 0.0657558
    Cl    = 0.510032
    Cl(f) = 0.956982
    Cl(r) = -0.44695

forceCoeffs canard_8 write:
    Cm    = 0.835745
    Cd    = 0.0657558
    Cl    = 0.510032
    Cl(f) = 1.09076
    Cl(r) = -0.580729

forceCoeffs canard_9 write:
    Cm    = 0.969524
    Cd    = 0.0657558
    Cl    = 0.510032
    Cl(f) = 1.22454
    Cl(r) = -0.714508

forceCoeffs canard_10 write:
    Cm    = 1.1033
    Cd    = 0.0657558
    Cl    = 0.510032
    Cl(f) = 1.35832
    Cl(r) = -0.848287

forceCoeffs canard_11 write:
    Cm    = 1.23708
    Cd    = 0.0657558
    Cl    = 0.510032
    Cl(f) = 1.4921
    Cl(r) = -0.982065

Time = 27s

smoothSolver:  Solving for Ux, Initial residual = 0.0024728, Final residual = 0.000120296, No Iterations 4
smoothSolver:  Solving for Uy, Initial residual = 0.0115794, Final residual = 0.000633786, No Iterations 4
smoothSolver:  Solving for Uz, Initial residual = 0.0317487, Final residual = 0.00170808, No Iterations 4
GAMG:  Solving for p, Initial residual = 0.0309146, Final residual = 0.00293209, No Iterations 2
time step continuity errors : sum local = 0.000311888, global = 8.91269e-06, cumulative = 6.41487e-05
smoothSolver:  Solving for nuTilda, Initial residual = 0.000453177, Final residual = 2.53449e-05, No Iterations 4
ExecutionTime = 411.901 s  ClockTime = 415 s

forceCoeffs canard_1 write:
    Cm    = -0.0927523
    Cd    = 0.0588287
    Cl    = 0.504846
    Cl(f) = 0.15967
    Cl(r) = 0.345175

forceCoeffs canard_2 write:
    Cm    = 0.0396662
    Cd    = 0.0588287
    Cl    = 0.504846
    Cl(f) = 0.292089
    Cl(r) = 0.212757

forceCoeffs canard_3 write:
    Cm    = 0.172085
    Cd    = 0.0588287
    Cl    = 0.504846
    Cl(f) = 0.424507
    Cl(r) = 0.0803381

forceCoeffs canard_4 write:
    Cm    = 0.304503
    Cd    = 0.0588287
    Cl    = 0.504846
    Cl(f) = 0.556926
    Cl(r) = -0.0520804

forceCoeffs canard_5 write:
    Cm    = 0.436922
    Cd    = 0.0588287
    Cl    = 0.504846
    Cl(f) = 0.689344
    Cl(r) = -0.184499

forceCoeffs canard_6 write:
    Cm    = 0.56934
    Cd    = 0.0588287
    Cl    = 0.504846
    Cl(f) = 0.821763
    Cl(r) = -0.316917

forceCoeffs canard_7 write:
    Cm    = 0.701759
    Cd    = 0.0588287
    Cl    = 0.504846
    Cl(f) = 0.954181
    Cl(r) = -0.449336

forceCoeffs canard_8 write:
    Cm    = 0.834177
    Cd    = 0.0588287
    Cl    = 0.504846
    Cl(f) = 1.0866
    Cl(r) = -0.581754

forceCoeffs canard_9 write:
    Cm    = 0.966596
    Cd    = 0.0588287
    Cl    = 0.504846
    Cl(f) = 1.21902
    Cl(r) = -0.714173

forceCoeffs canard_10 write:
    Cm    = 1.09901
    Cd    = 0.0588287
    Cl    = 0.504846
    Cl(f) = 1.35144
    Cl(r) = -0.846591

forceCoeffs canard_11 write:
    Cm    = 1.23143
    Cd    = 0.0588287
    Cl    = 0.504846
    Cl(f) = 1.48386
    Cl(r) = -0.97901

Time = 28s

smoothSolver:  Solving for Ux, Initial residual = 0.00236999, Final residual = 0.00011331, No Iterations 4
smoothSolver:  Solving for Uy, Initial residual = 0.0110595, Final residual = 0.000594611, No Iterations 4
smoothSolver:  Solving for Uz, Initial residual = 0.0294023, Final residual = 0.00153496, No Iterations 4
GAMG:  Solving for p, Initial residual = 0.0291835, Final residual = 0.0028799, No Iterations 2
time step continuity errors : sum local = 0.000295591, global = -9.13904e-06, cumulative = 5.50096e-05
smoothSolver:  Solving for nuTilda, Initial residual = 0.000447765, Final residual = 2.513e-05, No Iterations 4
ExecutionTime = 427.157 s  ClockTime = 431 s

forceCoeffs canard_1 write:
    Cm    = -0.0896323
    Cd    = 0.0571523
    Cl    = 0.500059
    Cl(f) = 0.160397
    Cl(r) = 0.339662

forceCoeffs canard_2 write:
    Cm    = 0.0415307
    Cd    = 0.0571523
    Cl    = 0.500059
    Cl(f) = 0.29156
    Cl(r) = 0.208499

forceCoeffs canard_3 write:
    Cm    = 0.172694
    Cd    = 0.0571523
    Cl    = 0.500059
    Cl(f) = 0.422723
    Cl(r) = 0.0773358

forceCoeffs canard_4 write:
    Cm    = 0.303857
    Cd    = 0.0571523
    Cl    = 0.500059
    Cl(f) = 0.553886
    Cl(r) = -0.0538272

forceCoeffs canard_5 write:
    Cm    = 0.43502
    Cd    = 0.0571523
    Cl    = 0.500059
    Cl(f) = 0.685049
    Cl(r) = -0.18499

forceCoeffs canard_6 write:
    Cm    = 0.566183
    Cd    = 0.0571523
    Cl    = 0.500059
    Cl(f) = 0.816212
    Cl(r) = -0.316153

forceCoeffs canard_7 write:
    Cm    = 0.697346
    Cd    = 0.0571523
    Cl    = 0.500059
    Cl(f) = 0.947375
    Cl(r) = -0.447316

forceCoeffs canard_8 write:
    Cm    = 0.828509
    Cd    = 0.0571523
    Cl    = 0.500059
    Cl(f) = 1.07854
    Cl(r) = -0.578479

forceCoeffs canard_9 write:
    Cm    = 0.959672
    Cd    = 0.0571523
    Cl    = 0.500059
    Cl(f) = 1.2097
    Cl(r) = -0.709642

forceCoeffs canard_10 write:
    Cm    = 1.09083
    Cd    = 0.0571523
    Cl    = 0.500059
    Cl(f) = 1.34086
    Cl(r) = -0.840805

forceCoeffs canard_11 write:
    Cm    = 1.222
    Cd    = 0.0571523
    Cl    = 0.500059
    Cl(f) = 1.47203
    Cl(r) = -0.971968

Time = 29s

smoothSolver:  Solving for Ux, Initial residual = 0.00261697, Final residual = 0.000106398, No Iterations 4
smoothSolver:  Solving for Uy, Initial residual = 0.0106364, Final residual = 0.000565398, No Iterations 4
smoothSolver:  Solving for Uz, Initial residual = 0.0264228, Final residual = 0.00134057, No Iterations 4
GAMG:  Solving for p, Initial residual = 0.0266653, Final residual = 0.00243742, No Iterations 2
time step continuity errors : sum local = 0.000249484, global = -1.52098e-06, cumulative = 5.34886e-05
smoothSolver:  Solving for nuTilda, Initial residual = 0.000448502, Final residual = 2.4975e-05, No Iterations 4
ExecutionTime = 439.488 s  ClockTime = 443 s

forceCoeffs canard_1 write:
    Cm    = -0.0909225
    Cd    = 0.0603816
    Cl    = 0.496924
    Cl(f) = 0.15754
    Cl(r) = 0.339385

forceCoeffs canard_2 write:
    Cm    = 0.0394182
    Cd    = 0.0603816
    Cl    = 0.496924
    Cl(f) = 0.28788
    Cl(r) = 0.209044

forceCoeffs canard_3 write:
    Cm    = 0.169759
    Cd    = 0.0603816
    Cl    = 0.496924
    Cl(f) = 0.418221
    Cl(r) = 0.0787031

forceCoeffs canard_4 write:
    Cm    = 0.3001
    Cd    = 0.0603816
    Cl    = 0.496924
    Cl(f) = 0.548562
    Cl(r) = -0.0516377

forceCoeffs canard_5 write:
    Cm    = 0.43044
    Cd    = 0.0603816
    Cl    = 0.496924
    Cl(f) = 0.678903
    Cl(r) = -0.181978

forceCoeffs canard_6 write:
    Cm    = 0.560781
    Cd    = 0.0603816
    Cl    = 0.496924
    Cl(f) = 0.809243
    Cl(r) = -0.312319

forceCoeffs canard_7 write:
    Cm    = 0.691122
    Cd    = 0.0603816
    Cl    = 0.496924
    Cl(f) = 0.939584
    Cl(r) = -0.44266

forceCoeffs canard_8 write:
    Cm    = 0.821463
    Cd    = 0.0603816
    Cl    = 0.496924
    Cl(f) = 1.06992
    Cl(r) = -0.573001

forceCoeffs canard_9 write:
    Cm    = 0.951804
    Cd    = 0.0603816
    Cl    = 0.496924
    Cl(f) = 1.20027
    Cl(r) = -0.703341

forceCoeffs canard_10 write:
    Cm    = 1.08214
    Cd    = 0.0603816
    Cl    = 0.496924
    Cl(f) = 1.33061
    Cl(r) = -0.833682

forceCoeffs canard_11 write:
    Cm    = 1.21249
    Cd    = 0.0603816
    Cl    = 0.496924
    Cl(f) = 1.46095
    Cl(r) = -0.964023

Time = 30s

smoothSolver:  Solving for Ux, Initial residual = 0.00270713, Final residual = 0.000103185, No Iterations 4
smoothSolver:  Solving for Uy, Initial residual = 0.0102839, Final residual = 0.00055007, No Iterations 4
smoothSolver:  Solving for Uz, Initial residual = 0.0244304, Final residual = 0.00126268, No Iterations 4
GAMG:  Solving for p, Initial residual = 0.0264821, Final residual = 0.00208381, No Iterations 2
time step continuity errors : sum local = 0.000219977, global = 1.57276e-05, cumulative = 6.92163e-05
smoothSolver:  Solving for nuTilda, Initial residual = 0.000452747, Final residual = 2.48856e-05, No Iterations 4
ExecutionTime = 460.394 s  ClockTime = 464 s

forceCoeffs canard_1 write:
    Cm    = -0.0932022
    Cd    = 0.0647843
    Cl    = 0.496015
    Cl(f) = 0.154805
    Cl(r) = 0.34121

forceCoeffs canard_2 write:
    Cm    = 0.0369
    Cd    = 0.0647843
    Cl    = 0.496015
    Cl(f) = 0.284907
    Cl(r) = 0.211107

forceCoeffs canard_3 write:
    Cm    = 0.167002
    Cd    = 0.0647843
    Cl    = 0.496015
    Cl(f) = 0.415009
    Cl(r) = 0.0810051

forceCoeffs canard_4 write:
    Cm    = 0.297104
    Cd    = 0.0647843
    Cl    = 0.496015
    Cl(f) = 0.545112
    Cl(r) = -0.049097

forceCoeffs canard_5 write:
    Cm    = 0.427207
    Cd    = 0.0647843
    Cl    = 0.496015
    Cl(f) = 0.675214
    Cl(r) = -0.179199

forceCoeffs canard_6 write:
    Cm    = 0.557309
    Cd    = 0.0647843
    Cl    = 0.496015
    Cl(f) = 0.805316
    Cl(r) = -0.309301

forceCoeffs canard_7 write:
    Cm    = 0.687411
    Cd    = 0.0647843
    Cl    = 0.496015
    Cl(f) = 0.935418
    Cl(r) = -0.439404

forceCoeffs canard_8 write:
    Cm    = 0.817513
    Cd    = 0.0647843
    Cl    = 0.496015
    Cl(f) = 1.06552
    Cl(r) = -0.569506

forceCoeffs canard_9 write:
    Cm    = 0.947615
    Cd    = 0.0647843
    Cl    = 0.496015
    Cl(f) = 1.19562
    Cl(r) = -0.699608

forceCoeffs canard_10 write:
    Cm    = 1.07772
    Cd    = 0.0647843
    Cl    = 0.496015
    Cl(f) = 1.32572
    Cl(r) = -0.82971

forceCoeffs canard_11 write:
    Cm    = 1.20782
    Cd    = 0.0647843
    Cl    = 0.496015
    Cl(f) = 1.45583
    Cl(r) = -0.959812

Time = 31s

smoothSolver:  Solving for Ux, Initial residual = 0.00236636, Final residual = 0.000101479, No Iterations 4
smoothSolver:  Solving for Uy, Initial residual = 0.00967724, Final residual = 0.000523598, No Iterations 4
smoothSolver:  Solving for Uz, Initial residual = 0.022643, Final residual = 0.00120105, No Iterations 4
GAMG:  Solving for p, Initial residual = 0.0255808, Final residual = 0.0021512, No Iterations 2
time step continuity errors : sum local = 0.000235623, global = 7.39723e-06, cumulative = 7.66135e-05
smoothSolver:  Solving for nuTilda, Initial residual = 0.000451533, Final residual = 2.48003e-05, No Iterations 4
ExecutionTime = 473.747 s  ClockTime = 477 s

forceCoeffs canard_1 write:
    Cm    = -0.0939507
    Cd    = 0.067379
    Cl    = 0.497814
    Cl(f) = 0.154956
    Cl(r) = 0.342858

forceCoeffs canard_2 write:
    Cm    = 0.0366234
    Cd    = 0.067379
    Cl    = 0.497814
    Cl(f) = 0.28553
    Cl(r) = 0.212283

forceCoeffs canard_3 write:
    Cm    = 0.167197
    Cd    = 0.067379
    Cl    = 0.497814
    Cl(f) = 0.416104
    Cl(r) = 0.0817094

forceCoeffs canard_4 write:
    Cm    = 0.297772
    Cd    = 0.067379
    Cl    = 0.497814
    Cl(f) = 0.546678
    Cl(r) = -0.0488647

forceCoeffs canard_5 write:
    Cm    = 0.428346
    Cd    = 0.067379
    Cl    = 0.497814
    Cl(f) = 0.677252
    Cl(r) = -0.179439

forceCoeffs canard_6 write:
    Cm    = 0.55892
    Cd    = 0.067379
    Cl    = 0.497814
    Cl(f) = 0.807826
    Cl(r) = -0.310013

forceCoeffs canard_7 write:
    Cm    = 0.689494
    Cd    = 0.067379
    Cl    = 0.497814
    Cl(f) = 0.938401
    Cl(r) = -0.440587

forceCoeffs canard_8 write:
    Cm    = 0.820068
    Cd    = 0.067379
    Cl    = 0.497814
    Cl(f) = 1.06897
    Cl(r) = -0.571161

forceCoeffs canard_9 write:
    Cm    = 0.950642
    Cd    = 0.067379
    Cl    = 0.497814
    Cl(f) = 1.19955
    Cl(r) = -0.701735

forceCoeffs canard_10 write:
    Cm    = 1.08122
    Cd    = 0.067379
    Cl    = 0.497814
    Cl(f) = 1.33012
    Cl(r) = -0.832309

forceCoeffs canard_11 write:
    Cm    = 1.21179
    Cd    = 0.067379
    Cl    = 0.497814
    Cl(f) = 1.4607
    Cl(r) = -0.962883

Time = 32s

smoothSolver:  Solving for Ux, Initial residual = 0.00209941, Final residual = 9.90665e-05, No Iterations 4
smoothSolver:  Solving for Uy, Initial residual = 0.00900272, Final residual = 0.000492177, No Iterations 4
smoothSolver:  Solving for Uz, Initial residual = 0.0207153, Final residual = 0.00109422, No Iterations 4
GAMG:  Solving for p, Initial residual = 0.0233883, Final residual = 0.00224503, No Iterations 2
time step continuity errors : sum local = 0.000252422, global = 2.91262e-05, cumulative = 0.00010574
smoothSolver:  Solving for nuTilda, Initial residual = 0.000445849, Final residual = 2.47507e-05, No Iterations 4
ExecutionTime = 487.405 s  ClockTime = 491 s

forceCoeffs canard_1 write:
    Cm    = -0.0924048
    Cd    = 0.0667086
    Cl    = 0.502351
    Cl(f) = 0.158771
    Cl(r) = 0.34358

forceCoeffs canard_2 write:
    Cm    = 0.0393594
    Cd    = 0.0667086
    Cl    = 0.502351
    Cl(f) = 0.290535
    Cl(r) = 0.211816

forceCoeffs canard_3 write:
    Cm    = 0.171124
    Cd    = 0.0667086
    Cl    = 0.502351
    Cl(f) = 0.422299
    Cl(r) = 0.0800519

forceCoeffs canard_4 write:
    Cm    = 0.302888
    Cd    = 0.0667086
    Cl    = 0.502351
    Cl(f) = 0.554063
    Cl(r) = -0.0517123

forceCoeffs canard_5 write:
    Cm    = 0.434652
    Cd    = 0.0667086
    Cl    = 0.502351
    Cl(f) = 0.685828
    Cl(r) = -0.183477

forceCoeffs canard_6 write:
    Cm    = 0.566416
    Cd    = 0.0667086
    Cl    = 0.502351
    Cl(f) = 0.817592
    Cl(r) = -0.315241

forceCoeffs canard_7 write:
    Cm    = 0.698181
    Cd    = 0.0667086
    Cl    = 0.502351
    Cl(f) = 0.949356
    Cl(r) = -0.447005

forceCoeffs canard_8 write:
    Cm    = 0.829945
    Cd    = 0.0667086
    Cl    = 0.502351
    Cl(f) = 1.08112
    Cl(r) = -0.578769

forceCoeffs canard_9 write:
    Cm    = 0.961709
    Cd    = 0.0667086
    Cl    = 0.502351
    Cl(f) = 1.21288
    Cl(r) = -0.710533

forceCoeffs canard_10 write:
    Cm    = 1.09347
    Cd    = 0.0667086
    Cl    = 0.502351
    Cl(f) = 1.34465
    Cl(r) = -0.842298

forceCoeffs canard_11 write:
    Cm    = 1.22524
    Cd    = 0.0667086
    Cl    = 0.502351
    Cl(f) = 1.47641
    Cl(r) = -0.974062

Time = 33s

smoothSolver:  Solving for Ux, Initial residual = 0.00226453, Final residual = 9.62411e-05, No Iterations 4
smoothSolver:  Solving for Uy, Initial residual = 0.0085713, Final residual = 0.00046895, No Iterations 4
smoothSolver:  Solving for Uz, Initial residual = 0.0200369, Final residual = 0.00103565, No Iterations 4
GAMG:  Solving for p, Initial residual = 0.0215478, Final residual = 0.00202786, No Iterations 2
time step continuity errors : sum local = 0.000227424, global = 2.95635e-05, cumulative = 0.000135303
smoothSolver:  Solving for nuTilda, Initial residual = 0.000440562, Final residual = 2.46622e-05, No Iterations 4
ExecutionTime = 500.998 s  ClockTime = 505 s

forceCoeffs canard_1 write:
    Cm    = -0.089939
    Cd    = 0.0635773
    Cl    = 0.507561
    Cl(f) = 0.163842
    Cl(r) = 0.34372

forceCoeffs canard_2 write:
    Cm    = 0.0431918
    Cd    = 0.0635773
    Cl    = 0.507561
    Cl(f) = 0.296972
    Cl(r) = 0.210589

forceCoeffs canard_3 write:
    Cm    = 0.176323
    Cd    = 0.0635773
    Cl    = 0.507561
    Cl(f) = 0.430103
    Cl(r) = 0.077458

forceCoeffs canard_4 write:
    Cm    = 0.309453
    Cd    = 0.0635773
    Cl    = 0.507561
    Cl(f) = 0.563234
    Cl(r) = -0.0556729

forceCoeffs canard_5 write:
    Cm    = 0.442584
    Cd    = 0.0635773
    Cl    = 0.507561
    Cl(f) = 0.696365
    Cl(r) = -0.188804

forceCoeffs canard_6 write:
    Cm    = 0.575715
    Cd    = 0.0635773
    Cl    = 0.507561
    Cl(f) = 0.829496
    Cl(r) = -0.321934

forceCoeffs canard_7 write:
    Cm    = 0.708846
    Cd    = 0.0635773
    Cl    = 0.507561
    Cl(f) = 0.962626
    Cl(r) = -0.455065

forceCoeffs canard_8 write:
    Cm    = 0.841977
    Cd    = 0.0635773
    Cl    = 0.507561
    Cl(f) = 1.09576
    Cl(r) = -0.588196

forceCoeffs canard_9 write:
    Cm    = 0.975107
    Cd    = 0.0635773
    Cl    = 0.507561
    Cl(f) = 1.22889
    Cl(r) = -0.721327

forceCoeffs canard_10 write:
    Cm    = 1.10824
    Cd    = 0.0635773
    Cl    = 0.507561
    Cl(f) = 1.36202
    Cl(r) = -0.854458

forceCoeffs canard_11 write:
    Cm    = 1.24137
    Cd    = 0.0635773
    Cl    = 0.507561
    Cl(f) = 1.49515
    Cl(r) = -0.987589

Time = 34s

smoothSolver:  Solving for Ux, Initial residual = 0.00250173, Final residual = 9.47647e-05, No Iterations 4
smoothSolver:  Solving for Uy, Initial residual = 0.00840556, Final residual = 0.000464374, No Iterations 4
smoothSolver:  Solving for Uz, Initial residual = 0.0204673, Final residual = 0.00106344, No Iterations 4
GAMG:  Solving for p, Initial residual = 0.0211676, Final residual = 0.00177871, No Iterations 2
time step continuity errors : sum local = 0.000193359, global = 2.93054e-06, cumulative = 0.000138234
smoothSolver:  Solving for nuTilda, Initial residual = 0.00044005, Final residual = 2.45924e-05, No Iterations 4
ExecutionTime = 519.515 s  ClockTime = 523 s

forceCoeffs canard_1 write:
    Cm    = -0.0882203
    Cd    = 0.060198
    Cl    = 0.510884
    Cl(f) = 0.167222
    Cl(r) = 0.343662

forceCoeffs canard_2 write:
    Cm    = 0.045782
    Cd    = 0.060198
    Cl    = 0.510884
    Cl(f) = 0.301224
    Cl(r) = 0.20966

forceCoeffs canard_3 write:
    Cm    = 0.179784
    Cd    = 0.060198
    Cl    = 0.510884
    Cl(f) = 0.435226
    Cl(r) = 0.0756576

forceCoeffs canard_4 write:
    Cm    = 0.313787
    Cd    = 0.060198
    Cl    = 0.510884
    Cl(f) = 0.569228
    Cl(r) = -0.0583447

forceCoeffs canard_5 write:
    Cm    = 0.447789
    Cd    = 0.060198
    Cl    = 0.510884
    Cl(f) = 0.703231
    Cl(r) = -0.192347

forceCoeffs canard_6 write:
    Cm    = 0.581791
    Cd    = 0.060198
    Cl    = 0.510884
    Cl(f) = 0.837233
    Cl(r) = -0.326349

forceCoeffs canard_7 write:
    Cm    = 0.715793
    Cd    = 0.060198
    Cl    = 0.510884
    Cl(f) = 0.971235
    Cl(r) = -0.460352

forceCoeffs canard_8 write:
    Cm    = 0.849796
    Cd    = 0.060198
    Cl    = 0.510884
    Cl(f) = 1.10524
    Cl(r) = -0.594354

forceCoeffs canard_9 write:
    Cm    = 0.983798
    Cd    = 0.060198
    Cl    = 0.510884
    Cl(f) = 1.23924
    Cl(r) = -0.728356

forceCoeffs canard_10 write:
    Cm    = 1.1178
    Cd    = 0.060198
    Cl    = 0.510884
    Cl(f) = 1.37324
    Cl(r) = -0.862358

forceCoeffs canard_11 write:
    Cm    = 1.2518
    Cd    = 0.060198
    Cl    = 0.510884
    Cl(f) = 1.50724
    Cl(r) = -0.996361

Time = 35s

[...]
    Cd    = 0.0566046
    Cl    = 0.674284
    Cl(f) = 1.65746
    Cl(r) = -0.983175

forceCoeffs canard_10 write:
    Cm    = 1.49718
    Cd    = 0.0566046
    Cl    = 0.674284
    Cl(f) = 1.83432
    Cl(r) = -1.16004

forceCoeffs canard_11 write:
    Cm    = 1.67404
    Cd    = 0.0566046
    Cl    = 0.674284
    Cl(f) = 2.01118
    Cl(r) = -1.3369

Time = 492s

smoothSolver:  Solving for Ux, Initial residual = 0.00432998, Final residual = 3.92547e-05, No Iterations 4
smoothSolver:  Solving for Uy, Initial residual = 0.000916078, Final residual = 3.46608e-05, No Iterations 4
smoothSolver:  Solving for Uz, Initial residual = 0.00312651, Final residual = 0.000123515, No Iterations 4
GAMG:  Solving for p, Initial residual = 0.0259357, Final residual = 0.00250983, No Iterations 2
time step continuity errors : sum local = 0.000285597, global = 9.2072e-06, cumulative = 0.000883312
smoothSolver:  Solving for nuTilda, Initial residual = 5.26349e-05, Final residual = 5.96783e-07, No Iterations 4
ExecutionTime = 4943.55 s  ClockTime = 4948 s

forceCoeffs canard_1 write:
    Cm    = -0.0947835
    Cd    = 0.0566906
    Cl    = 0.674445
    Cl(f) = 0.242439
    Cl(r) = 0.432006

forceCoeffs canard_2 write:
    Cm    = 0.0821202
    Cd    = 0.0566906
    Cl    = 0.674445
    Cl(f) = 0.419343
    Cl(r) = 0.255103

forceCoeffs canard_3 write:
    Cm    = 0.259024
    Cd    = 0.0566906
    Cl    = 0.674445
    Cl(f) = 0.596247
    Cl(r) = 0.0781988

forceCoeffs canard_4 write:
    Cm    = 0.435928
    Cd    = 0.0566906
    Cl    = 0.674445
    Cl(f) = 0.77315
    Cl(r) = -0.0987049

forceCoeffs canard_5 write:
    Cm    = 0.612831
    Cd    = 0.0566906
    Cl    = 0.674445
    Cl(f) = 0.950054
    Cl(r) = -0.275609

forceCoeffs canard_6 write:
    Cm    = 0.789735
    Cd    = 0.0566906
    Cl    = 0.674445
    Cl(f) = 1.12696
    Cl(r) = -0.452512

forceCoeffs canard_7 write:
    Cm    = 0.966639
    Cd    = 0.0566906
    Cl    = 0.674445
    Cl(f) = 1.30386
    Cl(r) = -0.629416

forceCoeffs canard_8 write:
    Cm    = 1.14354
    Cd    = 0.0566906
    Cl    = 0.674445
    Cl(f) = 1.48077
    Cl(r) = -0.80632

forceCoeffs canard_9 write:
    Cm    = 1.32045
    Cd    = 0.0566906
    Cl    = 0.674445
    Cl(f) = 1.65767
    Cl(r) = -0.983224

forceCoeffs canard_10 write:
    Cm    = 1.49735
    Cd    = 0.0566906
    Cl    = 0.674445
    Cl(f) = 1.83457
    Cl(r) = -1.16013

forceCoeffs canard_11 write:
    Cm    = 1.67425
    Cd    = 0.0566906
    Cl    = 0.674445
    Cl(f) = 2.01148
    Cl(r) = -1.33703

Time = 493s

smoothSolver:  Solving for Ux, Initial residual = 0.00328228, Final residual = 3.5585e-05, No Iterations 4
smoothSolver:  Solving for Uy, Initial residual = 0.000940144, Final residual = 3.1553e-05, No Iterations 4
smoothSolver:  Solving for Uz, Initial residual = 0.00328752, Final residual = 0.000113215, No Iterations 4
GAMG:  Solving for p, Initial residual = 0.0323288, Final residual = 0.0028137, No Iterations 2
time step continuity errors : sum local = 0.000306592, global = -3.93051e-05, cumulative = 0.000844007
smoothSolver:  Solving for nuTilda, Initial residual = 6.20445e-05, Final residual = 5.81946e-07, No Iterations 4
ExecutionTime = 4952.42 s  ClockTime = 4957 s

forceCoeffs canard_1 write:
    Cm    = -0.0951331
    Cd    = 0.0568296
    Cl    = 0.674979
    Cl(f) = 0.242356
    Cl(r) = 0.432623

forceCoeffs canard_2 write:
    Cm    = 0.0819106
    Cd    = 0.0568296
    Cl    = 0.674979
    Cl(f) = 0.4194
    Cl(r) = 0.255579

forceCoeffs canard_3 write:
    Cm    = 0.258954
    Cd    = 0.0568296
    Cl    = 0.674979
    Cl(f) = 0.596444
    Cl(r) = 0.0785353

forceCoeffs canard_4 write:
    Cm    = 0.435998
    Cd    = 0.0568296
    Cl    = 0.674979
    Cl(f) = 0.773488
    Cl(r) = -0.0985085

forceCoeffs canard_5 write:
    Cm    = 0.613042
    Cd    = 0.0568296
    Cl    = 0.674979
    Cl(f) = 0.950531
    Cl(r) = -0.275552

forceCoeffs canard_6 write:
    Cm    = 0.790085
    Cd    = 0.0568296
    Cl    = 0.674979
    Cl(f) = 1.12758
    Cl(r) = -0.452596

forceCoeffs canard_7 write:
    Cm    = 0.967129
    Cd    = 0.0568296
    Cl    = 0.674979
    Cl(f) = 1.30462
    Cl(r) = -0.62964

forceCoeffs canard_8 write:
    Cm    = 1.14417
    Cd    = 0.0568296
    Cl    = 0.674979
    Cl(f) = 1.48166
    Cl(r) = -0.806683

forceCoeffs canard_9 write:
    Cm    = 1.32122
    Cd    = 0.0568296
    Cl    = 0.674979
    Cl(f) = 1.65871
    Cl(r) = -0.983727

forceCoeffs canard_10 write:
    Cm    = 1.49826
    Cd    = 0.0568296
    Cl    = 0.674979
    Cl(f) = 1.83575
    Cl(r) = -1.16077

forceCoeffs canard_11 write:
    Cm    = 1.6753
    Cd    = 0.0568296
    Cl    = 0.674979
    Cl(f) = 2.01279
    Cl(r) = -1.33781

Time = 494s

smoothSolver:  Solving for Ux, Initial residual = 0.0022756, Final residual = 0.000203063, No Iterations 2
smoothSolver:  Solving for Uy, Initial residual = 0.00108051, Final residual = 4.67118e-05, No Iterations 4
smoothSolver:  Solving for Uz, Initial residual = 0.00370059, Final residual = 0.000147832, No Iterations 4
GAMG:  Solving for p, Initial residual = 0.0308002, Final residual = 0.00300118, No Iterations 2
time step continuity errors : sum local = 0.000331353, global = 1.19978e-05, cumulative = 0.000856005
smoothSolver:  Solving for nuTilda, Initial residual = 5.55408e-05, Final residual = 5.5604e-07, No Iterations 4
ExecutionTime = 4961.32 s  ClockTime = 4966 s

forceCoeffs canard_1 write:
    Cm    = -0.0953778
    Cd    = 0.0569516
    Cl    = 0.675506
    Cl(f) = 0.242375
    Cl(r) = 0.433131

forceCoeffs canard_2 write:
    Cm    = 0.081804
    Cd    = 0.0569516
    Cl    = 0.675506
    Cl(f) = 0.419557
    Cl(r) = 0.255949

forceCoeffs canard_3 write:
    Cm    = 0.258986
    Cd    = 0.0569516
    Cl    = 0.675506
    Cl(f) = 0.596739
    Cl(r) = 0.078767

forceCoeffs canard_4 write:
    Cm    = 0.436168
    Cd    = 0.0569516
    Cl    = 0.675506
    Cl(f) = 0.773921
    Cl(r) = -0.0984149

forceCoeffs canard_5 write:
    Cm    = 0.61335
    Cd    = 0.0569516
    Cl    = 0.675506
    Cl(f) = 0.951103
    Cl(r) = -0.275597

forceCoeffs canard_6 write:
    Cm    = 0.790532
    Cd    = 0.0569516
    Cl    = 0.675506
    Cl(f) = 1.12828
    Cl(r) = -0.452779

forceCoeffs canard_7 write:
    Cm    = 0.967713
    Cd    = 0.0569516
    Cl    = 0.675506
    Cl(f) = 1.30547
    Cl(r) = -0.62996

forceCoeffs canard_8 write:
    Cm    = 1.1449
    Cd    = 0.0569516
    Cl    = 0.675506
    Cl(f) = 1.48265
    Cl(r) = -0.807142

forceCoeffs canard_9 write:
    Cm    = 1.32208
    Cd    = 0.0569516
    Cl    = 0.675506
    Cl(f) = 1.65983
    Cl(r) = -0.984324

forceCoeffs canard_10 write:
    Cm    = 1.49926
    Cd    = 0.0569516
    Cl    = 0.675506
    Cl(f) = 1.83701
    Cl(r) = -1.16151

forceCoeffs canard_11 write:
    Cm    = 1.67644
    Cd    = 0.0569516
    Cl    = 0.675506
    Cl(f) = 2.01419
    Cl(r) = -1.33869

Time = 495s

smoothSolver:  Solving for Ux, Initial residual = 0.00298805, Final residual = 3.0097e-05, No Iterations 4
smoothSolver:  Solving for Uy, Initial residual = 0.00113618, Final residual = 5.34529e-05, No Iterations 4
smoothSolver:  Solving for Uz, Initial residual = 0.00394128, Final residual = 0.000175189, No Iterations 4
GAMG:  Solving for p, Initial residual = 0.0267397, Final residual = 0.00227903, No Iterations 2
time step continuity errors : sum local = 0.000265768, global = 2.14149e-05, cumulative = 0.00087742
smoothSolver:  Solving for nuTilda, Initial residual = 4.34063e-05, Final residual = 5.4932e-07, No Iterations 4
ExecutionTime = 4970.37 s  ClockTime = 4975 s

forceCoeffs canard_1 write:
    Cm    = -0.0954731
    Cd    = 0.0570006
    Cl    = 0.675919
    Cl(f) = 0.242486
    Cl(r) = 0.433433

forceCoeffs canard_2 write:
    Cm    = 0.0818171
    Cd    = 0.0570006
    Cl    = 0.675919
    Cl(f) = 0.419777
    Cl(r) = 0.256142

forceCoeffs canard_3 write:
    Cm    = 0.259107
    Cd    = 0.0570006
    Cl    = 0.675919
    Cl(f) = 0.597067
    Cl(r) = 0.0788522

forceCoeffs canard_4 write:
    Cm    = 0.436397
    Cd    = 0.0570006
    Cl    = 0.675919
    Cl(f) = 0.774357
    Cl(r) = -0.098438

forceCoeffs canard_5 write:
    Cm    = 0.613688
    Cd    = 0.0570006
    Cl    = 0.675919
    Cl(f) = 0.951647
    Cl(r) = -0.275728

forceCoeffs canard_6 write:
    Cm    = 0.790978
    Cd    = 0.0570006
    Cl    = 0.675919
    Cl(f) = 1.12894
    Cl(r) = -0.453018

forceCoeffs canard_7 write:
    Cm    = 0.968268
    Cd    = 0.0570006
    Cl    = 0.675919
    Cl(f) = 1.30623
    Cl(r) = -0.630309

forceCoeffs canard_8 write:
    Cm    = 1.14556
    Cd    = 0.0570006
    Cl    = 0.675919
    Cl(f) = 1.48352
    Cl(r) = -0.807599

forceCoeffs canard_9 write:
    Cm    = 1.32285
    Cd    = 0.0570006
    Cl    = 0.675919
    Cl(f) = 1.66081
    Cl(r) = -0.984889

forceCoeffs canard_10 write:
    Cm    = 1.50014
    Cd    = 0.0570006
    Cl    = 0.675919
    Cl(f) = 1.8381
    Cl(r) = -1.16218

forceCoeffs canard_11 write:
    Cm    = 1.67743
    Cd    = 0.0570006
    Cl    = 0.675919
    Cl(f) = 2.01539
    Cl(r) = -1.33947

Time = 496s

smoothSolver:  Solving for Ux, Initial residual = 0.00406269, Final residual = 3.48808e-05, No Iterations 4
smoothSolver:  Solving for Uy, Initial residual = 0.00111349, Final residual = 4.82755e-05, No Iterations 4
smoothSolver:  Solving for Uz, Initial residual = 0.00379526, Final residual = 0.000165479, No Iterations 4
GAMG:  Solving for p, Initial residual = 0.0227939, Final residual = 0.00156494, No Iterations 3
time step continuity errors : sum local = 0.000197485, global = 2.92157e-05, cumulative = 0.000906635
smoothSolver:  Solving for nuTilda, Initial residual = 4.57594e-05, Final residual = 5.68829e-07, No Iterations 4
ExecutionTime = 4979.51 s  ClockTime = 4984 s

forceCoeffs canard_1 write:
    Cm    = -0.0953154
    Cd    = 0.0568916
    Cl    = 0.675963
    Cl(f) = 0.242666
    Cl(r) = 0.433297

forceCoeffs canard_2 write:
    Cm    = 0.0819865
    Cd    = 0.0568916
    Cl    = 0.675963
    Cl(f) = 0.419968
    Cl(r) = 0.255995

forceCoeffs canard_3 write:
    Cm    = 0.259288
    Cd    = 0.0568916
    Cl    = 0.675963
    Cl(f) = 0.59727
    Cl(r) = 0.0786933

forceCoeffs canard_4 write:
    Cm    = 0.43659
    Cd    = 0.0568916
    Cl    = 0.675963
    Cl(f) = 0.774572
    Cl(r) = -0.0986085

forceCoeffs canard_5 write:
    Cm    = 0.613892
    Cd    = 0.0568916
    Cl    = 0.675963
    Cl(f) = 0.951874
    Cl(r) = -0.27591

forceCoeffs canard_6 write:
    Cm    = 0.791194
    Cd    = 0.0568916
    Cl    = 0.675963
    Cl(f) = 1.12918
    Cl(r) = -0.453212

forceCoeffs canard_7 write:
    Cm    = 0.968496
    Cd    = 0.0568916
    Cl    = 0.675963
    Cl(f) = 1.30648
    Cl(r) = -0.630514

forceCoeffs canard_8 write:
    Cm    = 1.1458
    Cd    = 0.0568916
    Cl    = 0.675963
    Cl(f) = 1.48378
    Cl(r) = -0.807816

forceCoeffs canard_9 write:
    Cm    = 1.3231
    Cd    = 0.0568916
    Cl    = 0.675963
    Cl(f) = 1.66108
    Cl(r) = -0.985118

forceCoeffs canard_10 write:
    Cm    = 1.5004
    Cd    = 0.0568916
    Cl    = 0.675963
    Cl(f) = 1.83838
    Cl(r) = -1.16242

forceCoeffs canard_11 write:
    Cm    = 1.6777
    Cd    = 0.0568916
    Cl    = 0.675963
    Cl(f) = 2.01568
    Cl(r) = -1.33972

Time = 497s

smoothSolver:  Solving for Ux, Initial residual = 0.00376825, Final residual = 3.72742e-05, No Iterations 4
smoothSolver:  Solving for Uy, Initial residual = 0.000990763, Final residual = 3.39592e-05, No Iterations 4
smoothSolver:  Solving for Uz, Initial residual = 0.00337067, Final residual = 0.000121356, No Iterations 4
GAMG:  Solving for p, Initial residual = 0.02317, Final residual = 0.00225558, No Iterations 2
time step continuity errors : sum local = 0.000305511, global = 1.42232e-05, cumulative = 0.000920858
smoothSolver:  Solving for nuTilda, Initial residual = 5.6431e-05, Final residual = 5.76173e-07, No Iterations 4
ExecutionTime = 4988.27 s  ClockTime = 4993 s

forceCoeffs canard_1 write:
    Cm    = -0.0949542
    Cd    = 0.0568066
    Cl    = 0.675528
    Cl(f) = 0.24281
    Cl(r) = 0.432718

forceCoeffs canard_2 write:
    Cm    = 0.0822334
    Cd    = 0.0568066
    Cl    = 0.675528
    Cl(f) = 0.419997
    Cl(r) = 0.25553

forceCoeffs canard_3 write:
    Cm    = 0.259421
    Cd    = 0.0568066
    Cl    = 0.675528
    Cl(f) = 0.597185
    Cl(r) = 0.0783428

forceCoeffs canard_4 write:
    Cm    = 0.436609
    Cd    = 0.0568066
    Cl    = 0.675528
    Cl(f) = 0.774372
    Cl(r) = -0.0988447

forceCoeffs canard_5 write:
    Cm    = 0.613796
    Cd    = 0.0568066
    Cl    = 0.675528
    Cl(f) = 0.95156
    Cl(r) = -0.276032

forceCoeffs canard_6 write:
    Cm    = 0.790984
    Cd    = 0.0568066
    Cl    = 0.675528
    Cl(f) = 1.12875
    Cl(r) = -0.45322

forceCoeffs canard_7 write:
    Cm    = 0.968171
    Cd    = 0.0568066
    Cl    = 0.675528
    Cl(f) = 1.30594
    Cl(r) = -0.630408

forceCoeffs canard_8 write:
    Cm    = 1.14536
    Cd    = 0.0568066
    Cl    = 0.675528
    Cl(f) = 1.48312
    Cl(r) = -0.807595

forceCoeffs canard_9 write:
    Cm    = 1.32255
    Cd    = 0.0568066
    Cl    = 0.675528
    Cl(f) = 1.66031
    Cl(r) = -0.984783

forceCoeffs canard_10 write:
    Cm    = 1.49973
    Cd    = 0.0568066
    Cl    = 0.675528
    Cl(f) = 1.8375
    Cl(r) = -1.16197

forceCoeffs canard_11 write:
    Cm    = 1.67692
    Cd    = 0.0568066
    Cl    = 0.675528
    Cl(f) = 2.01469
    Cl(r) = -1.33916

Time = 498s

smoothSolver:  Solving for Ux, Initial residual = 0.00246782, Final residual = 2.95969e-05, No Iterations 4
smoothSolver:  Solving for Uy, Initial residual = 0.0011008, Final residual = 4.30549e-05, No Iterations 4
smoothSolver:  Solving for Uz, Initial residual = 0.00370861, Final residual = 0.00013818, No Iterations 4
GAMG:  Solving for p, Initial residual = 0.0252221, Final residual = 0.00226706, No Iterations 2
time step continuity errors : sum local = 0.000314467, global = 1.75556e-05, cumulative = 0.000938414
smoothSolver:  Solving for nuTilda, Initial residual = 5.78141e-05, Final residual = 5.47564e-07, No Iterations 4
ExecutionTime = 4997.26 s  ClockTime = 5002 s

forceCoeffs canard_1 write:
    Cm    = -0.0946709
    Cd    = 0.0566708
    Cl    = 0.67496
    Cl(f) = 0.242809
    Cl(r) = 0.432151

forceCoeffs canard_2 write:
    Cm    = 0.0823677
    Cd    = 0.0566708
    Cl    = 0.67496
    Cl(f) = 0.419848
    Cl(r) = 0.255112

forceCoeffs canard_3 write:
    Cm    = 0.259406
    Cd    = 0.0566708
    Cl    = 0.67496
    Cl(f) = 0.596886
    Cl(r) = 0.0780736

forceCoeffs canard_4 write:
    Cm    = 0.436445
    Cd    = 0.0566708
    Cl    = 0.67496
    Cl(f) = 0.773925
    Cl(r) = -0.0989651

forceCoeffs canard_5 write:
    Cm    = 0.613484
    Cd    = 0.0566708
    Cl    = 0.67496
    Cl(f) = 0.950963
    Cl(r) = -0.276004

forceCoeffs canard_6 write:
    Cm    = 0.790522
    Cd    = 0.0566708
    Cl    = 0.67496
    Cl(f) = 1.128
    Cl(r) = -0.453042

forceCoeffs canard_7 write:
    Cm    = 0.967561
    Cd    = 0.0566708
    Cl    = 0.67496
    Cl(f) = 1.30504
    Cl(r) = -0.630081

forceCoeffs canard_8 write:
    Cm    = 1.1446
    Cd    = 0.0566708
    Cl    = 0.67496
    Cl(f) = 1.48208
    Cl(r) = -0.80712

forceCoeffs canard_9 write:
    Cm    = 1.32164
    Cd    = 0.0566708
    Cl    = 0.67496
    Cl(f) = 1.65912
    Cl(r) = -0.984158

forceCoeffs canard_10 write:
    Cm    = 1.49868
    Cd    = 0.0566708
    Cl    = 0.67496
    Cl(f) = 1.83616
    Cl(r) = -1.1612

forceCoeffs canard_11 write:
    Cm    = 1.67572
    Cd    = 0.0566708
    Cl    = 0.67496
    Cl(f) = 2.0132
    Cl(r) = -1.33824

Time = 499s

smoothSolver:  Solving for Ux, Initial residual = 0.00240891, Final residual = 0.000214755, No Iterations 2
smoothSolver:  Solving for Uy, Initial residual = 0.00115284, Final residual = 5.35368e-05, No Iterations 4
smoothSolver:  Solving for Uz, Initial residual = 0.00390888, Final residual = 0.000170597, No Iterations 4
GAMG:  Solving for p, Initial residual = 0.0238308, Final residual = 0.00229532, No Iterations 2
time step continuity errors : sum local = 0.000306195, global = -5.31664e-05, cumulative = 0.000885248
smoothSolver:  Solving for nuTilda, Initial residual = 4.77095e-05, Final residual = 5.20408e-07, No Iterations 4
ExecutionTime = 5005.9 s  ClockTime = 5011 s

forceCoeffs canard_1 write:
    Cm    = -0.0945134
    Cd    = 0.0565691
    Cl    = 0.674483
    Cl(f) = 0.242728
    Cl(r) = 0.431755

forceCoeffs canard_2 write:
    Cm    = 0.0824003
    Cd    = 0.0565691
    Cl    = 0.674483
    Cl(f) = 0.419642
    Cl(r) = 0.254841

forceCoeffs canard_3 write:
    Cm    = 0.259314
    Cd    = 0.0565691
    Cl    = 0.674483
    Cl(f) = 0.596556
    Cl(r) = 0.0779278

forceCoeffs canard_4 write:
    Cm    = 0.436228
    Cd    = 0.0565691
    Cl    = 0.674483
    Cl(f) = 0.773469
    Cl(r) = -0.0989859

forceCoeffs canard_5 write:
    Cm    = 0.613141
    Cd    = 0.0565691
    Cl    = 0.674483
    Cl(f) = 0.950383
    Cl(r) = -0.2759

forceCoeffs canard_6 write:
    Cm    = 0.790055
    Cd    = 0.0565691
    Cl    = 0.674483
    Cl(f) = 1.1273
    Cl(r) = -0.452813

forceCoeffs canard_7 write:
    Cm    = 0.966969
    Cd    = 0.0565691
    Cl    = 0.674483
    Cl(f) = 1.30421
    Cl(r) = -0.629727

forceCoeffs canard_8 write:
    Cm    = 1.14388
    Cd    = 0.0565691
    Cl    = 0.674483
    Cl(f) = 1.48112
    Cl(r) = -0.806641

forceCoeffs canard_9 write:
    Cm    = 1.3208
    Cd    = 0.0565691
    Cl    = 0.674483
    Cl(f) = 1.65804
    Cl(r) = -0.983554

forceCoeffs canard_10 write:
    Cm    = 1.49771
    Cd    = 0.0565691
    Cl    = 0.674483
    Cl(f) = 1.83495
    Cl(r) = -1.16047

forceCoeffs canard_11 write:
    Cm    = 1.67462
    Cd    = 0.0565691
    Cl    = 0.674483
    Cl(f) = 2.01187
    Cl(r) = -1.33738

Time = 500s

smoothSolver:  Solving for Ux, Initial residual = 0.00351129, Final residual = 3.18052e-05, No Iterations 4
smoothSolver:  Solving for Uy, Initial residual = 0.00111198, Final residual = 4.99331e-05, No Iterations 4
smoothSolver:  Solving for Uz, Initial residual = 0.00381029, Final residual = 0.000167906, No Iterations 4
GAMG:  Solving for p, Initial residual = 0.0237116, Final residual = 0.00236615, No Iterations 2
time step continuity errors : sum local = 0.000295203, global = 1.53526e-05, cumulative = 0.0009006
smoothSolver:  Solving for nuTilda, Initial residual = 3.9751e-05, Final residual = 5.30566e-07, No Iterations 4
ExecutionTime = 5021.06 s  ClockTime = 5026 s

forceCoeffs canard_1 write:
    Cm    = -0.0945659
    Cd    = 0.0565906
    Cl    = 0.674251
    Cl(f) = 0.24256
    Cl(r) = 0.431691

forceCoeffs canard_2 write:
    Cm    = 0.0822868
    Cd    = 0.0565906
    Cl    = 0.674251
    Cl(f) = 0.419412
    Cl(r) = 0.254839

forceCoeffs canard_3 write:
    Cm    = 0.25914
    Cd    = 0.0565906
    Cl    = 0.674251
    Cl(f) = 0.596265
    Cl(r) = 0.0779859

forceCoeffs canard_4 write:
    Cm    = 0.435992
    Cd    = 0.0565906
    Cl    = 0.674251
    Cl(f) = 0.773118
    Cl(r) = -0.0988668

forceCoeffs canard_5 write:
    Cm    = 0.612845
    Cd    = 0.0565906
    Cl    = 0.674251
    Cl(f) = 0.94997
    Cl(r) = -0.275719

forceCoeffs canard_6 write:
    Cm    = 0.789698
    Cd    = 0.0565906
    Cl    = 0.674251
    Cl(f) = 1.12682
    Cl(r) = -0.452572

forceCoeffs canard_7 write:
    Cm    = 0.96655
    Cd    = 0.0565906
    Cl    = 0.674251
    Cl(f) = 1.30368
    Cl(r) = -0.629425

forceCoeffs canard_8 write:
    Cm    = 1.1434
    Cd    = 0.0565906
    Cl    = 0.674251
    Cl(f) = 1.48053
    Cl(r) = -0.806278

forceCoeffs canard_9 write:
    Cm    = 1.32026
    Cd    = 0.0565906
    Cl    = 0.674251
    Cl(f) = 1.65738
    Cl(r) = -0.98313

forceCoeffs canard_10 write:
    Cm    = 1.49711
    Cd    = 0.0565906
    Cl    = 0.674251
    Cl(f) = 1.83423
    Cl(r) = -1.15998

forceCoeffs canard_11 write:
    Cm    = 1.67396
    Cd    = 0.0565906
    Cl    = 0.674251
    Cl(f) = 2.01109
    Cl(r) = -1.33684

End

Finalising parallel run
