
simpleFoam has been superseded and replaced by the more general
incompressibleFluid solver module executed by the foamRun application:

    foamRun -solver incompressibleFluid


simpleFoam has been superseded and replaced by the more general
incompressibleFluid solver module executed by the foamRun application:

    foamRun -solver incompressibleFluid


simpleFoam has been superseded and replaced by the more general
incompressibleFluid solver module executed by the foamRun application:

    foamRun -solver incompressibleFluid

/*---------------------------------------------------------------------------*\
  =========                 |
  \\      /  F ield         | OpenFOAM: The Open Source CFD Toolbox
   \\    /   O peration     | Website:  https://openfoam.org
    \\  /    A nd           | Version:  12
     \\/     M anipulation  |
\*---------------------------------------------------------------------------*/
Build  : 12-86e126a7bc4d
Exec   : foamRun -solver incompressibleFluid -parallel
Date   : Jun 24 2025
Time   : 03:19:23
Host   : "EmiAlamilla"
PID    : 83269
I/O    : uncollated
Case   : /home/emilianoalamilla/CFD/Aircraft/AoA_10
nProcs : 3
Slaves : 
2
(
"EmiAlamilla.83270"
"EmiAlamilla.83273"
)

Pstream initialised with:
    floatTransfer      : false
    nProcsSimpleSum    : 0
    commsType          : nonBlocking
    polling iterations : 0
sigFpe : Enabling floating point exception trapping (FOAM_SIGFPE).
fileModificationChecking : Monitoring run-time modified files using timeStampMaster (fileModificationSkew 10)
allowSystemOperations : Allowing user-supplied system call operations

// * * * * * * * * * * * * * * * * * * * * * * * * * * * * * * * * * * * * * //
Create time

Create mesh for time = 0

Selecting solver incompressibleFluid
Selecting viscosity model constant
Selecting turbulence model type RAS
Selecting RAS turbulence model SpalartAllmaras
RAS
{
    RASModel        SpalartAllmaras;
    turbulence      on;
    printCoeffs     on;
    sigmaNut        0.66666;
    kappa           0.41;
    Cb1             0.1355;
    Cb2             0.622;
    Cw2             0.3;
    Cw3             2;
    Cv1             7.1;
    Cs              0.3;
}

No MRF models present


SIMPLE: Convergence criteria found
        p: tolerance 1e-05
        U: tolerance 1e-05
        nuTilda: tolerance 1e-05


SIMPLE: Operating solver in steady-state mode with 1 outer corrector
SIMPLE: Operating solver in SIMPLE mode



Starting time loop

forcesBase canard_1:
    Not including porosity effects
forces canard_1:
    Not including porosity effects
forceCoeffs canard_1:
    Not including porosity effects
forcesBase canard_2:
    Not including porosity effects
forces canard_2:
    Not including porosity effects
forceCoeffs canard_2:
    Not including porosity effects
forcesBase canard_3:
    Not including porosity effects
forces canard_3:
    Not including porosity effects
forceCoeffs canard_3:
    Not including porosity effects
forcesBase canard_4:
    Not including porosity effects
forces canard_4:
    Not including porosity effects
forceCoeffs canard_4:
    Not including porosity effects
forcesBase canard_5:
    Not including porosity effects
forces canard_5:
    Not including porosity effects
forceCoeffs canard_5:
    Not including porosity effects
forcesBase canard_6:
    Not including porosity effects
forces canard_6:
    Not including porosity effects
forceCoeffs canard_6:
    Not including porosity effects
forcesBase canard_7:
    Not including porosity effects
forces canard_7:
    Not including porosity effects
forceCoeffs canard_7:
    Not including porosity effects
forcesBase canard_8:
    Not including porosity effects
forces canard_8:
    Not including porosity effects
forceCoeffs canard_8:
    Not including porosity effects
forcesBase canard_9:
    Not including porosity effects
forces canard_9:
    Not including porosity effects
forceCoeffs canard_9:
    Not including porosity effects
forcesBase canard_10:
    Not including porosity effects
forces canard_10:
    Not including porosity effects
forceCoeffs canard_10:
    Not including porosity effects
forcesBase canard_11:
    Not including porosity effects
forces canard_11:
    Not including porosity effects
forceCoeffs canard_11:
    Not including porosity effects
forceCoeffs canard_1 write:
    Cm    = -0.000145521
    Cd    = 0.00645992
    Cl    = 0.000264329
    Cl(f) = -1.33562e-05
    Cl(r) = 0.000277686

forceCoeffs canard_2 write:
    Cm    = 0.000216989
    Cd    = 0.00645992
    Cl    = 0.000264329
    Cl(f) = 0.000349153
    Cl(r) = -8.48239e-05

forceCoeffs canard_3 write:
    Cm    = 0.000579498
    Cd    = 0.00645992
    Cl    = 0.000264329
    Cl(f) = 0.000711663
    Cl(r) = -0.000447333

forceCoeffs canard_4 write:
    Cm    = 0.000942008
    Cd    = 0.00645992
    Cl    = 0.000264329
    Cl(f) = 0.00107417
    Cl(r) = -0.000809843

forceCoeffs canard_5 write:
    Cm    = 0.00130452
    Cd    = 0.00645992
    Cl    = 0.000264329
    Cl(f) = 0.00143668
    Cl(r) = -0.00117235

forceCoeffs canard_6 write:
    Cm    = 0.00166703
    Cd    = 0.00645992
    Cl    = 0.000264329
    Cl(f) = 0.00179919
    Cl(r) = -0.00153486

forceCoeffs canard_7 write:
    Cm    = 0.00202954
    Cd    = 0.00645992
    Cl    = 0.000264329
    Cl(f) = 0.0021617
    Cl(r) = -0.00189737

forceCoeffs canard_8 write:
    Cm    = 0.00239205
    Cd    = 0.00645992
    Cl    = 0.000264329
    Cl(f) = 0.00252421
    Cl(r) = -0.00225988

forceCoeffs canard_9 write:
    Cm    = 0.00275456
    Cd    = 0.00645992
    Cl    = 0.000264329
    Cl(f) = 0.00288672
    Cl(r) = -0.00262239

forceCoeffs canard_10 write:
    Cm    = 0.00311706
    Cd    = 0.00645992
    Cl    = 0.000264329
    Cl(f) = 0.00324923
    Cl(r) = -0.0029849

forceCoeffs canard_11 write:
    Cm    = 0.00347957
    Cd    = 0.00645992
    Cl    = 0.000264329
    Cl(f) = 0.00361174
    Cl(r) = -0.00334741

Time = 1s

smoothSolver:  Solving for Ux, Initial residual = 1, Final residual = 0.0404984, No Iterations 4
smoothSolver:  Solving for Uy, Initial residual = 1, Final residual = 0.0253297, No Iterations 4
smoothSolver:  Solving for Uz, Initial residual = 1, Final residual = 0.0219254, No Iterations 4
GAMG:  Solving for p, Initial residual = 1, Final residual = 0.088905, No Iterations 5
time step continuity errors : sum local = 0.000506681, global = -1.0418e-05, cumulative = -1.0418e-05
Selecting patchDistMethod meshWave
smoothSolver:  Solving for nuTilda, Initial residual = 1, Final residual = 0.0283058, No Iterations 2
ExecutionTime = 22.1828 s  ClockTime = 22 s

forceCoeffs canard_1 write:
    Cm    = -5.05144
    Cd    = 4.33942
    Cl    = 9.1691
    Cl(f) = -0.466884
    Cl(r) = 9.63599

forceCoeffs canard_2 write:
    Cm    = -2.48531
    Cd    = 4.33942
    Cl    = 9.1691
    Cl(f) = 2.09924
    Cl(r) = 7.06987

forceCoeffs canard_3 write:
    Cm    = 0.0808071
    Cd    = 4.33942
    Cl    = 9.1691
    Cl(f) = 4.66536
    Cl(r) = 4.50374

forceCoeffs canard_4 write:
    Cm    = 2.64693
    Cd    = 4.33942
    Cl    = 9.1691
    Cl(f) = 7.23148
    Cl(r) = 1.93762

forceCoeffs canard_5 write:
    Cm    = 5.21305
    Cd    = 4.33942
    Cl    = 9.1691
    Cl(f) = 9.7976
    Cl(r) = -0.628498

forceCoeffs canard_6 write:
    Cm    = 7.77917
    Cd    = 4.33942
    Cl    = 9.1691
    Cl(f) = 12.3637
    Cl(r) = -3.19462

forceCoeffs canard_7 write:
    Cm    = 10.3453
    Cd    = 4.33942
    Cl    = 9.1691
    Cl(f) = 14.9298
    Cl(r) = -5.76074

forceCoeffs canard_8 write:
    Cm    = 12.9114
    Cd    = 4.33942
    Cl    = 9.1691
    Cl(f) = 17.496
    Cl(r) = -8.32686

forceCoeffs canard_9 write:
    Cm    = 15.4775
    Cd    = 4.33942
    Cl    = 9.1691
    Cl(f) = 20.0621
    Cl(r) = -10.893

forceCoeffs canard_10 write:
    Cm    = 18.0437
    Cd    = 4.33942
    Cl    = 9.1691
    Cl(f) = 22.6282
    Cl(r) = -13.4591

forceCoeffs canard_11 write:
    Cm    = 20.6098
    Cd    = 4.33942
    Cl    = 9.1691
    Cl(f) = 25.1943
    Cl(r) = -16.0252

Time = 2s

smoothSolver:  Solving for Ux, Initial residual = 0.145972, Final residual = 0.00983422, No Iterations 4
smoothSolver:  Solving for Uy, Initial residual = 0.0922901, Final residual = 0.00663824, No Iterations 4
smoothSolver:  Solving for Uz, Initial residual = 0.623408, Final residual = 0.0421296, No Iterations 4
GAMG:  Solving for p, Initial residual = 0.213285, Final residual = 0.0105498, No Iterations 3
time step continuity errors : sum local = 0.000780233, global = 6.30038e-06, cumulative = -4.11765e-06
smoothSolver:  Solving for nuTilda, Initial residual = 0.0795561, Final residual = 0.00462151, No Iterations 2
ExecutionTime = 32.1534 s  ClockTime = 32 s

forceCoeffs canard_1 write:
    Cm    = -3.37546
    Cd    = 2.83713
    Cl    = 6.53149
    Cl(f) = -0.109719
    Cl(r) = 6.6412

forceCoeffs canard_2 write:
    Cm    = -1.55909
    Cd    = 2.83713
    Cl    = 6.53149
    Cl(f) = 1.70665
    Cl(r) = 4.82483

forceCoeffs canard_3 write:
    Cm    = 0.257283
    Cd    = 2.83713
    Cl    = 6.53149
    Cl(f) = 3.52303
    Cl(r) = 3.00846

forceCoeffs canard_4 write:
    Cm    = 2.07366
    Cd    = 2.83713
    Cl    = 6.53149
    Cl(f) = 5.3394
    Cl(r) = 1.19209

forceCoeffs canard_5 write:
    Cm    = 3.89003
    Cd    = 2.83713
    Cl    = 6.53149
    Cl(f) = 7.15577
    Cl(r) = -0.624285

forceCoeffs canard_6 write:
    Cm    = 5.7064
    Cd    = 2.83713
    Cl    = 6.53149
    Cl(f) = 8.97214
    Cl(r) = -2.44066

forceCoeffs canard_7 write:
    Cm    = 7.52277
    Cd    = 2.83713
    Cl    = 6.53149
    Cl(f) = 10.7885
    Cl(r) = -4.25703

forceCoeffs canard_8 write:
    Cm    = 9.33914
    Cd    = 2.83713
    Cl    = 6.53149
    Cl(f) = 12.6049
    Cl(r) = -6.0734

forceCoeffs canard_9 write:
    Cm    = 11.1555
    Cd    = 2.83713
    Cl    = 6.53149
    Cl(f) = 14.4213
    Cl(r) = -7.88977

forceCoeffs canard_10 write:
    Cm    = 12.9719
    Cd    = 2.83713
    Cl    = 6.53149
    Cl(f) = 16.2376
    Cl(r) = -9.70615

forceCoeffs canard_11 write:
    Cm    = 14.7883
    Cd    = 2.83713
    Cl    = 6.53149
    Cl(f) = 18.054
    Cl(r) = -11.5225

Time = 3s

smoothSolver:  Solving for Ux, Initial residual = 0.0275899, Final residual = 0.00185817, No Iterations 4
smoothSolver:  Solving for Uy, Initial residual = 0.0138564, Final residual = 0.000994466, No Iterations 4
smoothSolver:  Solving for Uz, Initial residual = 0.269418, Final residual = 0.0179715, No Iterations 4
GAMG:  Solving for p, Initial residual = 0.248416, Final residual = 0.0171862, No Iterations 3
time step continuity errors : sum local = 0.00180945, global = 4.5516e-05, cumulative = 4.13983e-05
smoothSolver:  Solving for nuTilda, Initial residual = 0.0410617, Final residual = 0.00266595, No Iterations 2
ExecutionTime = 42.1309 s  ClockTime = 42 s

forceCoeffs canard_1 write:
    Cm    = 0.291716
    Cd    = -0.24175
    Cl    = 0.384294
    Cl(f) = 0.483863
    Cl(r) = -0.099569

forceCoeffs canard_2 write:
    Cm    = 0.379972
    Cd    = -0.24175
    Cl    = 0.384294
    Cl(f) = 0.572119
    Cl(r) = -0.187825

forceCoeffs canard_3 write:
    Cm    = 0.468228
    Cd    = -0.24175
    Cl    = 0.384294
    Cl(f) = 0.660375
    Cl(r) = -0.276081

forceCoeffs canard_4 write:
    Cm    = 0.556484
    Cd    = -0.24175
    Cl    = 0.384294
    Cl(f) = 0.748632
    Cl(r) = -0.364337

forceCoeffs canard_5 write:
    Cm    = 0.644741
    Cd    = -0.24175
    Cl    = 0.384294
    Cl(f) = 0.836888
    Cl(r) = -0.452593

forceCoeffs canard_6 write:
    Cm    = 0.732997
    Cd    = -0.24175
    Cl    = 0.384294
    Cl(f) = 0.925144
    Cl(r) = -0.54085

forceCoeffs canard_7 write:
    Cm    = 0.821253
    Cd    = -0.24175
    Cl    = 0.384294
    Cl(f) = 1.0134
    Cl(r) = -0.629106

forceCoeffs canard_8 write:
    Cm    = 0.909509
    Cd    = -0.24175
    Cl    = 0.384294
    Cl(f) = 1.10166
    Cl(r) = -0.717362

forceCoeffs canard_9 write:
    Cm    = 0.997765
    Cd    = -0.24175
    Cl    = 0.384294
    Cl(f) = 1.18991
    Cl(r) = -0.805618

forceCoeffs canard_10 write:
    Cm    = 1.08602
    Cd    = -0.24175
    Cl    = 0.384294
    Cl(f) = 1.27817
    Cl(r) = -0.893874

forceCoeffs canard_11 write:
    Cm    = 1.17428
    Cd    = -0.24175
    Cl    = 0.384294
    Cl(f) = 1.36642
    Cl(r) = -0.98213

Time = 4s

smoothSolver:  Solving for Ux, Initial residual = 0.00974646, Final residual = 0.000561967, No Iterations 4
smoothSolver:  Solving for Uy, Initial residual = 0.00401834, Final residual = 0.000242516, No Iterations 4
smoothSolver:  Solving for Uz, Initial residual = 0.114247, Final residual = 0.00665416, No Iterations 4
GAMG:  Solving for p, Initial residual = 0.116661, Final residual = 0.00833122, No Iterations 3
time step continuity errors : sum local = 0.00129156, global = 3.6193e-05, cumulative = 7.75913e-05
smoothSolver:  Solving for nuTilda, Initial residual = 0.0291242, Final residual = 0.00192001, No Iterations 2
ExecutionTime = 51.9928 s  ClockTime = 52 s

forceCoeffs canard_1 write:
    Cm    = 2.13123
    Cd    = -1.77678
    Cl    = -2.96776
    Cl(f) = 0.647353
    Cl(r) = -3.61511

forceCoeffs canard_2 write:
    Cm    = 1.2837
    Cd    = -1.77678
    Cl    = -2.96776
    Cl(f) = -0.200176
    Cl(r) = -2.76758

forceCoeffs canard_3 write:
    Cm    = 0.436174
    Cd    = -1.77678
    Cl    = -2.96776
    Cl(f) = -1.04771
    Cl(r) = -1.92005

forceCoeffs canard_4 write:
    Cm    = -0.411355
    Cd    = -1.77678
    Cl    = -2.96776
    Cl(f) = -1.89523
    Cl(r) = -1.07252

forceCoeffs canard_5 write:
    Cm    = -1.25888
    Cd    = -1.77678
    Cl    = -2.96776
    Cl(f) = -2.74276
    Cl(r) = -0.224994

forceCoeffs canard_6 write:
    Cm    = -2.10641
    Cd    = -1.77678
    Cl    = -2.96776
    Cl(f) = -3.59029
    Cl(r) = 0.622535

forceCoeffs canard_7 write:
    Cm    = -2.95394
    Cd    = -1.77678
    Cl    = -2.96776
    Cl(f) = -4.43782
    Cl(r) = 1.47006

forceCoeffs canard_8 write:
    Cm    = -3.80147
    Cd    = -1.77678
    Cl    = -2.96776
    Cl(f) = -5.28535
    Cl(r) = 2.31759

forceCoeffs canard_9 write:
    Cm    = -4.649
    Cd    = -1.77678
    Cl    = -2.96776
    Cl(f) = -6.13288
    Cl(r) = 3.16512

forceCoeffs canard_10 write:
    Cm    = -5.49653
    Cd    = -1.77678
    Cl    = -2.96776
    Cl(f) = -6.98041
    Cl(r) = 4.01265

forceCoeffs canard_11 write:
    Cm    = -6.34406
    Cd    = -1.77678
    Cl    = -2.96776
    Cl(f) = -7.82794
    Cl(r) = 4.86018

Time = 5s

smoothSolver:  Solving for Ux, Initial residual = 0.0146854, Final residual = 0.000933875, No Iterations 4
smoothSolver:  Solving for Uy, Initial residual = 0.00844166, Final residual = 0.000583026, No Iterations 4
smoothSolver:  Solving for Uz, Initial residual = 0.140609, Final residual = 0.00917008, No Iterations 4
GAMG:  Solving for p, Initial residual = 0.0874693, Final residual = 0.00532746, No Iterations 3
time step continuity errors : sum local = 0.00101445, global = 2.83596e-05, cumulative = 0.000105951
smoothSolver:  Solving for nuTilda, Initial residual = 0.0236813, Final residual = 0.00145532, No Iterations 2
ExecutionTime = 61.6242 s  ClockTime = 62 s

forceCoeffs canard_1 write:
    Cm    = 1.30695
    Cd    = -1.12293
    Cl    = -1.88038
    Cl(f) = 0.366756
    Cl(r) = -2.24713

forceCoeffs canard_2 write:
    Cm    = 0.770078
    Cd    = -1.12293
    Cl    = -1.88038
    Cl(f) = -0.170111
    Cl(r) = -1.71027

forceCoeffs canard_3 write:
    Cm    = 0.233211
    Cd    = -1.12293
    Cl    = -1.88038
    Cl(f) = -0.706977
    Cl(r) = -1.1734

forceCoeffs canard_4 write:
    Cm    = -0.303656
    Cd    = -1.12293
    Cl    = -1.88038
    Cl(f) = -1.24384
    Cl(r) = -0.636533

forceCoeffs canard_5 write:
    Cm    = -0.840522
    Cd    = -1.12293
    Cl    = -1.88038
    Cl(f) = -1.78071
    Cl(r) = -0.0996663

forceCoeffs canard_6 write:
    Cm    = -1.37739
    Cd    = -1.12293
    Cl    = -1.88038
    Cl(f) = -2.31758
    Cl(r) = 0.437201

forceCoeffs canard_7 write:
    Cm    = -1.91426
    Cd    = -1.12293
    Cl    = -1.88038
    Cl(f) = -2.85444
    Cl(r) = 0.974067

forceCoeffs canard_8 write:
    Cm    = -2.45112
    Cd    = -1.12293
    Cl    = -1.88038
    Cl(f) = -3.39131
    Cl(r) = 1.51093

forceCoeffs canard_9 write:
    Cm    = -2.98799
    Cd    = -1.12293
    Cl    = -1.88038
    Cl(f) = -3.92818
    Cl(r) = 2.0478

forceCoeffs canard_10 write:
    Cm    = -3.52486
    Cd    = -1.12293
    Cl    = -1.88038
    Cl(f) = -4.46505
    Cl(r) = 2.58467

forceCoeffs canard_11 write:
    Cm    = -4.06172
    Cd    = -1.12293
    Cl    = -1.88038
    Cl(f) = -5.00191
    Cl(r) = 3.12153

Time = 6s

smoothSolver:  Solving for Ux, Initial residual = 0.0250503, Final residual = 0.00159542, No Iterations 4
smoothSolver:  Solving for Uy, Initial residual = 0.0149814, Final residual = 0.00103338, No Iterations 4
smoothSolver:  Solving for Uz, Initial residual = 0.170058, Final residual = 0.0114382, No Iterations 4
GAMG:  Solving for p, Initial residual = 0.132534, Final residual = 0.007112, No Iterations 3
time step continuity errors : sum local = 0.00109776, global = -1.77386e-05, cumulative = 8.82123e-05
smoothSolver:  Solving for nuTilda, Initial residual = 0.0196313, Final residual = 0.00108733, No Iterations 2
bounding nuTilda, min: -0.000334576 max: 0.0707649 average: 0.0169176
ExecutionTime = 71.8414 s  ClockTime = 72 s

forceCoeffs canard_1 write:
    Cm    = -0.478803
    Cd    = 0.313973
    Cl    = 0.903893
    Cl(f) = -0.0268561
    Cl(r) = 0.930749

forceCoeffs canard_2 write:
    Cm    = -0.231017
    Cd    = 0.313973
    Cl    = 0.903893
    Cl(f) = 0.220929
    Cl(r) = 0.682964

forceCoeffs canard_3 write:
    Cm    = 0.0167681
    Cd    = 0.313973
    Cl    = 0.903893
    Cl(f) = 0.468715
    Cl(r) = 0.435179

forceCoeffs canard_4 write:
    Cm    = 0.264554
    Cd    = 0.313973
    Cl    = 0.903893
    Cl(f) = 0.7165
    Cl(r) = 0.187393

forceCoeffs canard_5 write:
    Cm    = 0.512339
    Cd    = 0.313973
    Cl    = 0.903893
    Cl(f) = 0.964286
    Cl(r) = -0.0603924

forceCoeffs canard_6 write:
    Cm    = 0.760125
    Cd    = 0.313973
    Cl    = 0.903893
    Cl(f) = 1.21207
    Cl(r) = -0.308178

forceCoeffs canard_7 write:
    Cm    = 1.00791
    Cd    = 0.313973
    Cl    = 0.903893
    Cl(f) = 1.45986
    Cl(r) = -0.555963

forceCoeffs canard_8 write:
    Cm    = 1.2557
    Cd    = 0.313973
    Cl    = 0.903893
    Cl(f) = 1.70764
    Cl(r) = -0.803749

forceCoeffs canard_9 write:
    Cm    = 1.50348
    Cd    = 0.313973
    Cl    = 0.903893
    Cl(f) = 1.95543
    Cl(r) = -1.05153

forceCoeffs canard_10 write:
    Cm    = 1.75127
    Cd    = 0.313973
    Cl    = 0.903893
    Cl(f) = 2.20321
    Cl(r) = -1.29932

forceCoeffs canard_11 write:
    Cm    = 1.99905
    Cd    = 0.313973
    Cl    = 0.903893
    Cl(f) = 2.451
    Cl(r) = -1.54711

Time = 7s

smoothSolver:  Solving for Ux, Initial residual = 0.0240047, Final residual = 0.00130373, No Iterations 4
smoothSolver:  Solving for Uy, Initial residual = 0.0189782, Final residual = 0.00116047, No Iterations 4
smoothSolver:  Solving for Uz, Initial residual = 0.146653, Final residual = 0.00881457, No Iterations 4
GAMG:  Solving for p, Initial residual = 0.255092, Final residual = 0.0138583, No Iterations 3
time step continuity errors : sum local = 0.000767899, global = -1.89196e-05, cumulative = 6.92927e-05
smoothSolver:  Solving for nuTilda, Initial residual = 0.0299074, Final residual = 0.00153604, No Iterations 2
bounding nuTilda, min: -0.000627467 max: 0.0707649 average: 0.0164946
ExecutionTime = 81.9487 s  ClockTime = 82 s

forceCoeffs canard_1 write:
    Cm    = -1.43763
    Cd    = 1.10062
    Cl    = 2.62002
    Cl(f) = -0.127624
    Cl(r) = 2.74765

forceCoeffs canard_2 write:
    Cm    = -0.710726
    Cd    = 1.10062
    Cl    = 2.62002
    Cl(f) = 0.599284
    Cl(r) = 2.02074

forceCoeffs canard_3 write:
    Cm    = 0.0161819
    Cd    = 1.10062
    Cl    = 2.62002
    Cl(f) = 1.32619
    Cl(r) = 1.29383

forceCoeffs canard_4 write:
    Cm    = 0.74309
    Cd    = 1.10062
    Cl    = 2.62002
    Cl(f) = 2.0531
    Cl(r) = 0.56692

forceCoeffs canard_5 write:
    Cm    = 1.47
    Cd    = 1.10062
    Cl    = 2.62002
    Cl(f) = 2.78001
    Cl(r) = -0.159988

forceCoeffs canard_6 write:
    Cm    = 2.19691
    Cd    = 1.10062
    Cl    = 2.62002
    Cl(f) = 3.50692
    Cl(r) = -0.886896

forceCoeffs canard_7 write:
    Cm    = 2.92382
    Cd    = 1.10062
    Cl    = 2.62002
    Cl(f) = 4.23383
    Cl(r) = -1.6138

forceCoeffs canard_8 write:
    Cm    = 3.65072
    Cd    = 1.10062
    Cl    = 2.62002
    Cl(f) = 4.96073
    Cl(r) = -2.34071

forceCoeffs canard_9 write:
    Cm    = 4.37763
    Cd    = 1.10062
    Cl    = 2.62002
    Cl(f) = 5.68764
    Cl(r) = -3.06762

forceCoeffs canard_10 write:
    Cm    = 5.10454
    Cd    = 1.10062
    Cl    = 2.62002
    Cl(f) = 6.41455
    Cl(r) = -3.79453

forceCoeffs canard_11 write:
    Cm    = 5.83145
    Cd    = 1.10062
    Cl    = 2.62002
    Cl(f) = 7.14146
    Cl(r) = -4.52144

Time = 8s

smoothSolver:  Solving for Ux, Initial residual = 0.0175725, Final residual = 0.00105652, No Iterations 4
smoothSolver:  Solving for Uy, Initial residual = 0.0126968, Final residual = 0.000848529, No Iterations 4
smoothSolver:  Solving for Uz, Initial residual = 0.131757, Final residual = 0.00772023, No Iterations 4
GAMG:  Solving for p, Initial residual = 0.28143, Final residual = 0.0190427, No Iterations 3
time step continuity errors : sum local = 0.000928639, global = -3.54975e-05, cumulative = 3.37953e-05
smoothSolver:  Solving for nuTilda, Initial residual = 0.0266053, Final residual = 0.00141491, No Iterations 2
bounding nuTilda, min: -0.000100994 max: 0.0707649 average: 0.0161599
ExecutionTime = 92.3987 s  ClockTime = 93 s

forceCoeffs canard_1 write:
    Cm    = -1.08353
    Cd    = 0.842552
    Cl    = 2.28778
    Cl(f) = 0.0603569
    Cl(r) = 2.22742

forceCoeffs canard_2 write:
    Cm    = -0.4542
    Cd    = 0.842552
    Cl    = 2.28778
    Cl(f) = 0.689689
    Cl(r) = 1.59809

forceCoeffs canard_3 write:
    Cm    = 0.175132
    Cd    = 0.842552
    Cl    = 2.28778
    Cl(f) = 1.31902
    Cl(r) = 0.968757

forceCoeffs canard_4 write:
    Cm    = 0.804465
    Cd    = 0.842552
    Cl    = 2.28778
    Cl(f) = 1.94835
    Cl(r) = 0.339425

forceCoeffs canard_5 write:
    Cm    = 1.4338
    Cd    = 0.842552
    Cl    = 2.28778
    Cl(f) = 2.57769
    Cl(r) = -0.289908

forceCoeffs canard_6 write:
    Cm    = 2.06313
    Cd    = 0.842552
    Cl    = 2.28778
    Cl(f) = 3.20702
    Cl(r) = -0.91924

forceCoeffs canard_7 write:
    Cm    = 2.69246
    Cd    = 0.842552
    Cl    = 2.28778
    Cl(f) = 3.83635
    Cl(r) = -1.54857

forceCoeffs canard_8 write:
    Cm    = 3.32179
    Cd    = 0.842552
    Cl    = 2.28778
    Cl(f) = 4.46568
    Cl(r) = -2.17791

forceCoeffs canard_9 write:
    Cm    = 3.95113
    Cd    = 0.842552
    Cl    = 2.28778
    Cl(f) = 5.09502
    Cl(r) = -2.80724

forceCoeffs canard_10 write:
    Cm    = 4.58046
    Cd    = 0.842552
    Cl    = 2.28778
    Cl(f) = 5.72435
    Cl(r) = -3.43657

forceCoeffs canard_11 write:
    Cm    = 5.20979
    Cd    = 0.842552
    Cl    = 2.28778
    Cl(f) = 6.35368
    Cl(r) = -4.0659

Time = 9s

smoothSolver:  Solving for Ux, Initial residual = 0.0122092, Final residual = 0.000760667, No Iterations 4
smoothSolver:  Solving for Uy, Initial residual = 0.00605578, Final residual = 0.000397031, No Iterations 4
smoothSolver:  Solving for Uz, Initial residual = 0.122748, Final residual = 0.00742765, No Iterations 4
GAMG:  Solving for p, Initial residual = 0.695973, Final residual = 0.0380453, No Iterations 3
time step continuity errors : sum local = 0.000837791, global = -4.17347e-06, cumulative = 2.96218e-05
smoothSolver:  Solving for nuTilda, Initial residual = 0.0246531, Final residual = 0.00144201, No Iterations 2
bounding nuTilda, min: -0.000242789 max: 0.0707649 average: 0.0158867
ExecutionTime = 103.344 s  ClockTime = 104 s

forceCoeffs canard_1 write:
    Cm    = -0.24911
    Cd    = 0.192157
    Cl    = 1.15602
    Cl(f) = 0.3289
    Cl(r) = 0.827121

forceCoeffs canard_2 write:
    Cm    = 0.0582538
    Cd    = 0.192157
    Cl    = 1.15602
    Cl(f) = 0.636264
    Cl(r) = 0.519757

forceCoeffs canard_3 write:
    Cm    = 0.365618
    Cd    = 0.192157
    Cl    = 1.15602
    Cl(f) = 0.943629
    Cl(r) = 0.212392

forceCoeffs canard_4 write:
    Cm    = 0.672982
    Cd    = 0.192157
    Cl    = 1.15602
    Cl(f) = 1.25099
    Cl(r) = -0.0949718

forceCoeffs canard_5 write:
    Cm    = 0.980347
    Cd    = 0.192157
    Cl    = 1.15602
    Cl(f) = 1.55836
    Cl(r) = -0.402336

forceCoeffs canard_6 write:
    Cm    = 1.28771
    Cd    = 0.192157
    Cl    = 1.15602
    Cl(f) = 1.86572
    Cl(r) = -0.7097

forceCoeffs canard_7 write:
    Cm    = 1.59508
    Cd    = 0.192157
    Cl    = 1.15602
    Cl(f) = 2.17309
    Cl(r) = -1.01706

forceCoeffs canard_8 write:
    Cm    = 1.90244
    Cd    = 0.192157
    Cl    = 1.15602
    Cl(f) = 2.48045
    Cl(r) = -1.32443

forceCoeffs canard_9 write:
    Cm    = 2.2098
    Cd    = 0.192157
    Cl    = 1.15602
    Cl(f) = 2.78781
    Cl(r) = -1.63179

forceCoeffs canard_10 write:
    Cm    = 2.51717
    Cd    = 0.192157
    Cl    = 1.15602
    Cl(f) = 3.09518
    Cl(r) = -1.93916

forceCoeffs canard_11 write:
    Cm    = 2.82453
    Cd    = 0.192157
    Cl    = 1.15602
    Cl(f) = 3.40254
    Cl(r) = -2.24652

Time = 10s

smoothSolver:  Solving for Ux, Initial residual = 0.0102345, Final residual = 0.000592301, No Iterations 4
smoothSolver:  Solving for Uy, Initial residual = 0.00471275, Final residual = 0.000280185, No Iterations 4
smoothSolver:  Solving for Uz, Initial residual = 0.110897, Final residual = 0.00642125, No Iterations 4
GAMG:  Solving for p, Initial residual = 0.112746, Final residual = 0.00531378, No Iterations 3
time step continuity errors : sum local = 0.000538837, global = 1.04083e-05, cumulative = 4.00301e-05
smoothSolver:  Solving for nuTilda, Initial residual = 0.0230519, Final residual = 0.00139054, No Iterations 2
ExecutionTime = 119.748 s  ClockTime = 120 s

forceCoeffs canard_1 write:
    Cm    = 0.237504
    Cd    = -0.204294
    Cl    = 0.401259
    Cl(f) = 0.438134
    Cl(r) = -0.0368744

forceCoeffs canard_2 write:
    Cm    = 0.331849
    Cd    = -0.204294
    Cl    = 0.401259
    Cl(f) = 0.532478
    Cl(r) = -0.131219

forceCoeffs canard_3 write:
    Cm    = 0.426193
    Cd    = -0.204294
    Cl    = 0.401259
    Cl(f) = 0.626823
    Cl(r) = -0.225563

forceCoeffs canard_4 write:
    Cm    = 0.520537
    Cd    = -0.204294
    Cl    = 0.401259
    Cl(f) = 0.721167
    Cl(r) = -0.319908

forceCoeffs canard_5 write:
    Cm    = 0.614882
    Cd    = -0.204294
    Cl    = 0.401259
    Cl(f) = 0.815512
    Cl(r) = -0.414252

forceCoeffs canard_6 write:
    Cm    = 0.709226
    Cd    = -0.204294
    Cl    = 0.401259
    Cl(f) = 0.909856
    Cl(r) = -0.508597

forceCoeffs canard_7 write:
    Cm    = 0.803571
    Cd    = -0.204294
    Cl    = 0.401259
    Cl(f) = 1.0042
    Cl(r) = -0.602941

forceCoeffs canard_8 write:
    Cm    = 0.897915
    Cd    = -0.204294
    Cl    = 0.401259
    Cl(f) = 1.09854
    Cl(r) = -0.697285

forceCoeffs canard_9 write:
    Cm    = 0.99226
    Cd    = -0.204294
    Cl    = 0.401259
    Cl(f) = 1.19289
    Cl(r) = -0.79163

forceCoeffs canard_10 write:
    Cm    = 1.0866
    Cd    = -0.204294
    Cl    = 0.401259
    Cl(f) = 1.28723
    Cl(r) = -0.885974

forceCoeffs canard_11 write:
    Cm    = 1.18095
    Cd    = -0.204294
    Cl    = 0.401259
    Cl(f) = 1.38158
    Cl(r) = -0.980319

Time = 11s

smoothSolver:  Solving for Ux, Initial residual = 0.0101142, Final residual = 0.000556945, No Iterations 4
smoothSolver:  Solving for Uy, Initial residual = 0.00612605, Final residual = 0.000379338, No Iterations 4
smoothSolver:  Solving for Uz, Initial residual = 0.0909045, Final residual = 0.00514461, No Iterations 4
GAMG:  Solving for p, Initial residual = 0.063541, Final residual = 0.00392301, No Iterations 3
time step continuity errors : sum local = 0.000669063, global = 3.14937e-05, cumulative = 7.15238e-05
smoothSolver:  Solving for nuTilda, Initial residual = 0.0209927, Final residual = 0.0012344, No Iterations 2
ExecutionTime = 130.192 s  ClockTime = 130 s

forceCoeffs canard_1 write:
    Cm    = 0.109469
    Cd    = -0.125517
    Cl    = 0.504928
    Cl(f) = 0.361934
    Cl(r) = 0.142995

forceCoeffs canard_2 write:
    Cm    = 0.234181
    Cd    = -0.125517
    Cl    = 0.504928
    Cl(f) = 0.486645
    Cl(r) = 0.0182835

forceCoeffs canard_3 write:
    Cm    = 0.358892
    Cd    = -0.125517
    Cl    = 0.504928
    Cl(f) = 0.611356
    Cl(r) = -0.106428

forceCoeffs canard_4 write:
    Cm    = 0.483603
    Cd    = -0.125517
    Cl    = 0.504928
    Cl(f) = 0.736067
    Cl(r) = -0.231139

forceCoeffs canard_5 write:
    Cm    = 0.608315
    Cd    = -0.125517
    Cl    = 0.504928
    Cl(f) = 0.860779
    Cl(r) = -0.35585

forceCoeffs canard_6 write:
    Cm    = 0.733026
    Cd    = -0.125517
    Cl    = 0.504928
    Cl(f) = 0.98549
    Cl(r) = -0.480562

forceCoeffs canard_7 write:
    Cm    = 0.857737
    Cd    = -0.125517
    Cl    = 0.504928
    Cl(f) = 1.1102
    Cl(r) = -0.605273

forceCoeffs canard_8 write:
    Cm    = 0.982448
    Cd    = -0.125517
    Cl    = 0.504928
    Cl(f) = 1.23491
    Cl(r) = -0.729984

forceCoeffs canard_9 write:
    Cm    = 1.10716
    Cd    = -0.125517
    Cl    = 0.504928
    Cl(f) = 1.35962
    Cl(r) = -0.854695

forceCoeffs canard_10 write:
    Cm    = 1.23187
    Cd    = -0.125517
    Cl    = 0.504928
    Cl(f) = 1.48434
    Cl(r) = -0.979407

forceCoeffs canard_11 write:
    Cm    = 1.35658
    Cd    = -0.125517
    Cl    = 0.504928
    Cl(f) = 1.60905
    Cl(r) = -1.10412

Time = 12s

smoothSolver:  Solving for Ux, Initial residual = 0.00980497, Final residual = 0.00053485, No Iterations 4
smoothSolver:  Solving for Uy, Initial residual = 0.00634144, Final residual = 0.000390773, No Iterations 4
smoothSolver:  Solving for Uz, Initial residual = 0.0662903, Final residual = 0.00371758, No Iterations 4
GAMG:  Solving for p, Initial residual = 0.0702026, Final residual = 0.0040442, No Iterations 3
time step continuity errors : sum local = 0.000670097, global = 2.32747e-05, cumulative = 9.47985e-05
smoothSolver:  Solving for nuTilda, Initial residual = 0.0185494, Final residual = 0.000992573, No Iterations 2
ExecutionTime = 139.673 s  ClockTime = 140 s

forceCoeffs canard_1 write:
    Cm    = -0.250983
    Cd    = 0.146204
    Cl    = 0.963386
    Cl(f) = 0.23071
    Cl(r) = 0.732676

forceCoeffs canard_2 write:
    Cm    = 0.00452822
    Cd    = 0.146204
    Cl    = 0.963386
    Cl(f) = 0.486221
    Cl(r) = 0.477165

forceCoeffs canard_3 write:
    Cm    = 0.26004
    Cd    = 0.146204
    Cl    = 0.963386
    Cl(f) = 0.741733
    Cl(r) = 0.221653

forceCoeffs canard_4 write:
    Cm    = 0.515551
    Cd    = 0.146204
    Cl    = 0.963386
    Cl(f) = 0.997245
    Cl(r) = -0.0338584

forceCoeffs canard_5 write:
    Cm    = 0.771063
    Cd    = 0.146204
    Cl    = 0.963386
    Cl(f) = 1.25276
    Cl(r) = -0.28937

forceCoeffs canard_6 write:
    Cm    = 1.02657
    Cd    = 0.146204
    Cl    = 0.963386
    Cl(f) = 1.50827
    Cl(r) = -0.544882

forceCoeffs canard_7 write:
    Cm    = 1.28209
    Cd    = 0.146204
    Cl    = 0.963386
    Cl(f) = 1.76378
    Cl(r) = -0.800393

forceCoeffs canard_8 write:
    Cm    = 1.5376
    Cd    = 0.146204
    Cl    = 0.963386
    Cl(f) = 2.01929
    Cl(r) = -1.0559

forceCoeffs canard_9 write:
    Cm    = 1.79311
    Cd    = 0.146204
    Cl    = 0.963386
    Cl(f) = 2.2748
    Cl(r) = -1.31142

forceCoeffs canard_10 write:
    Cm    = 2.04862
    Cd    = 0.146204
    Cl    = 0.963386
    Cl(f) = 2.53031
    Cl(r) = -1.56693

forceCoeffs canard_11 write:
    Cm    = 2.30413
    Cd    = 0.146204
    Cl    = 0.963386
    Cl(f) = 2.78583
    Cl(r) = -1.82244

Time = 13s

smoothSolver:  Solving for Ux, Initial residual = 0.00873596, Final residual = 0.000471625, No Iterations 4
smoothSolver:  Solving for Uy, Initial residual = 0.00636979, Final residual = 0.000379412, No Iterations 4
smoothSolver:  Solving for Uz, Initial residual = 0.0564432, Final residual = 0.00318347, No Iterations 4
GAMG:  Solving for p, Initial residual = 0.0841529, Final residual = 0.00790234, No Iterations 2
time step continuity errors : sum local = 0.000862414, global = 2.19979e-05, cumulative = 0.000116796
smoothSolver:  Solving for nuTilda, Initial residual = 0.0160393, Final residual = 0.000729463, No Iterations 2
bounding nuTilda, min: -0.00350245 max: 0.0707649 average: 0.0151473
ExecutionTime = 148.836 s  ClockTime = 149 s

forceCoeffs canard_1 write:
    Cm    = -0.440281
    Cd    = 0.300743
    Cl    = 1.22706
    Cl(f) = 0.173247
    Cl(r) = 1.05381

forceCoeffs canard_2 write:
    Cm    = -0.109622
    Cd    = 0.300743
    Cl    = 1.22706
    Cl(f) = 0.503906
    Cl(r) = 0.72315

forceCoeffs canard_3 write:
    Cm    = 0.221037
    Cd    = 0.300743
    Cl    = 1.22706
    Cl(f) = 0.834564
    Cl(r) = 0.392491

forceCoeffs canard_4 write:
    Cm    = 0.551696
    Cd    = 0.300743
    Cl    = 1.22706
    Cl(f) = 1.16522
    Cl(r) = 0.061832

forceCoeffs canard_5 write:
    Cm    = 0.882355
    Cd    = 0.300743
    Cl    = 1.22706
    Cl(f) = 1.49588
    Cl(r) = -0.268827

forceCoeffs canard_6 write:
    Cm    = 1.21301
    Cd    = 0.300743
    Cl    = 1.22706
    Cl(f) = 1.82654
    Cl(r) = -0.599486

forceCoeffs canard_7 write:
    Cm    = 1.54367
    Cd    = 0.300743
    Cl    = 1.22706
    Cl(f) = 2.1572
    Cl(r) = -0.930145

forceCoeffs canard_8 write:
    Cm    = 1.87433
    Cd    = 0.300743
    Cl    = 1.22706
    Cl(f) = 2.48786
    Cl(r) = -1.2608

forceCoeffs canard_9 write:
    Cm    = 2.20499
    Cd    = 0.300743
    Cl    = 1.22706
    Cl(f) = 2.81852
    Cl(r) = -1.59146

forceCoeffs canard_10 write:
    Cm    = 2.53565
    Cd    = 0.300743
    Cl    = 1.22706
    Cl(f) = 3.14918
    Cl(r) = -1.92212

forceCoeffs canard_11 write:
    Cm    = 2.86631
    Cd    = 0.300743
    Cl    = 1.22706
    Cl(f) = 3.47984
    Cl(r) = -2.25278

Time = 14s

smoothSolver:  Solving for Ux, Initial residual = 0.00754347, Final residual = 0.000417104, No Iterations 4
smoothSolver:  Solving for Uy, Initial residual = 0.00594562, Final residual = 0.000356407, No Iterations 4
smoothSolver:  Solving for Uz, Initial residual = 0.0555294, Final residual = 0.00313369, No Iterations 4
GAMG:  Solving for p, Initial residual = 0.13591, Final residual = 0.00675371, No Iterations 3
time step continuity errors : sum local = 0.000419278, global = -1.73481e-05, cumulative = 9.94483e-05
smoothSolver:  Solving for nuTilda, Initial residual = 0.0152159, Final residual = 0.000728675, No Iterations 2
bounding nuTilda, min: -0.00700348 max: 0.0707649 average: 0.0150201
ExecutionTime = 157.997 s  ClockTime = 158 s

forceCoeffs canard_1 write:
    Cm    = -0.41641
    Cd    = 0.307608
    Cl    = 1.26555
    Cl(f) = 0.216366
    Cl(r) = 1.04919

forceCoeffs canard_2 write:
    Cm    = -0.075494
    Cd    = 0.307608
    Cl    = 1.26555
    Cl(f) = 0.557282
    Cl(r) = 0.70827

forceCoeffs canard_3 write:
    Cm    = 0.265422
    Cd    = 0.307608
    Cl    = 1.26555
    Cl(f) = 0.898198
    Cl(r) = 0.367354

forceCoeffs canard_4 write:
    Cm    = 0.606338
    Cd    = 0.307608
    Cl    = 1.26555
    Cl(f) = 1.23911
    Cl(r) = 0.0264386

forceCoeffs canard_5 write:
    Cm    = 0.947253
    Cd    = 0.307608
    Cl    = 1.26555
    Cl(f) = 1.58003
    Cl(r) = -0.314477

forceCoeffs canard_6 write:
    Cm    = 1.28817
    Cd    = 0.307608
    Cl    = 1.26555
    Cl(f) = 1.92095
    Cl(r) = -0.655393

forceCoeffs canard_7 write:
    Cm    = 1.62908
    Cd    = 0.307608
    Cl    = 1.26555
    Cl(f) = 2.26186
    Cl(r) = -0.996309

forceCoeffs canard_8 write:
    Cm    = 1.97
    Cd    = 0.307608
    Cl    = 1.26555
    Cl(f) = 2.60278
    Cl(r) = -1.33722

forceCoeffs canard_9 write:
    Cm    = 2.31092
    Cd    = 0.307608
    Cl    = 1.26555
    Cl(f) = 2.94369
    Cl(r) = -1.67814

forceCoeffs canard_10 write:
    Cm    = 2.65183
    Cd    = 0.307608
    Cl    = 1.26555
    Cl(f) = 3.28461
    Cl(r) = -2.01906

forceCoeffs canard_11 write:
    Cm    = 2.99275
    Cd    = 0.307608
    Cl    = 1.26555
    Cl(f) = 3.62552
    Cl(r) = -2.35997

Time = 15s

smoothSolver:  Solving for Ux, Initial residual = 0.0067472, Final residual = 0.000364464, No Iterations 4
smoothSolver:  Solving for Uy, Initial residual = 0.00446879, Final residual = 0.000264893, No Iterations 4
smoothSolver:  Solving for Uz, Initial residual = 0.0507579, Final residual = 0.00279765, No Iterations 4
GAMG:  Solving for p, Initial residual = 0.175243, Final residual = 0.00969626, No Iterations 3
time step continuity errors : sum local = 0.000473307, global = -2.80609e-05, cumulative = 7.13874e-05
smoothSolver:  Solving for nuTilda, Initial residual = 0.0143276, Final residual = 0.00119751, No Iterations 2
bounding nuTilda, min: -0.00651524 max: 0.0707649 average: 0.0149088
ExecutionTime = 167.734 s  ClockTime = 168 s

forceCoeffs canard_1 write:
    Cm    = -0.272664
    Cd    = 0.218271
    Cl    = 1.14397
    Cl(f) = 0.299319
    Cl(r) = 0.844647

forceCoeffs canard_2 write:
    Cm    = 0.0327756
    Cd    = 0.218271
    Cl    = 1.14397
    Cl(f) = 0.604759
    Cl(r) = 0.539208

forceCoeffs canard_3 write:
    Cm    = 0.338215
    Cd    = 0.218271
    Cl    = 1.14397
    Cl(f) = 0.910199
    Cl(r) = 0.233768

forceCoeffs canard_4 write:
    Cm    = 0.643655
    Cd    = 0.218271
    Cl    = 1.14397
    Cl(f) = 1.21564
    Cl(r) = -0.071672

forceCoeffs canard_5 write:
    Cm    = 0.949095
    Cd    = 0.218271
    Cl    = 1.14397
    Cl(f) = 1.52108
    Cl(r) = -0.377112

forceCoeffs canard_6 write:
    Cm    = 1.25453
    Cd    = 0.218271
    Cl    = 1.14397
    Cl(f) = 1.82652
    Cl(r) = -0.682552

forceCoeffs canard_7 write:
    Cm    = 1.55997
    Cd    = 0.218271
    Cl    = 1.14397
    Cl(f) = 2.13196
    Cl(r) = -0.987991

forceCoeffs canard_8 write:
    Cm    = 1.86541
    Cd    = 0.218271
    Cl    = 1.14397
    Cl(f) = 2.4374
    Cl(r) = -1.29343

forceCoeffs canard_9 write:
    Cm    = 2.17085
    Cd    = 0.218271
    Cl    = 1.14397
    Cl(f) = 2.74284
    Cl(r) = -1.59887

forceCoeffs canard_10 write:
    Cm    = 2.47629
    Cd    = 0.218271
    Cl    = 1.14397
    Cl(f) = 3.04828
    Cl(r) = -1.90431

forceCoeffs canard_11 write:
    Cm    = 2.78173
    Cd    = 0.218271
    Cl    = 1.14397
    Cl(f) = 3.35372
    Cl(r) = -2.20975

Time = 16s

smoothSolver:  Solving for Ux, Initial residual = 0.00650049, Final residual = 0.000351001, No Iterations 4
smoothSolver:  Solving for Uy, Initial residual = 0.00396955, Final residual = 0.000232084, No Iterations 4
smoothSolver:  Solving for Uz, Initial residual = 0.0517112, Final residual = 0.0028793, No Iterations 4
GAMG:  Solving for p, Initial residual = 0.0953703, Final residual = 0.00943565, No Iterations 2
time step continuity errors : sum local = 0.000725092, global = -3.55104e-05, cumulative = 3.58771e-05
smoothSolver:  Solving for nuTilda, Initial residual = 0.0148777, Final residual = 0.000204634, No Iterations 2
bounding nuTilda, min: -0.00408297 max: 0.0707649 average: 0.0148114
ExecutionTime = 177.066 s  ClockTime = 177 s

forceCoeffs canard_1 write:
    Cm    = -0.178765
    Cd    = 0.156418
    Cl    = 1.06924
    Cl(f) = 0.355854
    Cl(r) = 0.713383

forceCoeffs canard_2 write:
    Cm    = 0.104554
    Cd    = 0.156418
    Cl    = 1.06924
    Cl(f) = 0.639173
    Cl(r) = 0.430064

forceCoeffs canard_3 write:
    Cm    = 0.387874
    Cd    = 0.156418
    Cl    = 1.06924
    Cl(f) = 0.922492
    Cl(r) = 0.146745

forceCoeffs canard_4 write:
    Cm    = 0.671193
    Cd    = 0.156418
    Cl    = 1.06924
    Cl(f) = 1.20581
    Cl(r) = -0.136574

forceCoeffs canard_5 write:
    Cm    = 0.954512
    Cd    = 0.156418
    Cl    = 1.06924
    Cl(f) = 1.48913
    Cl(r) = -0.419894

forceCoeffs canard_6 write:
    Cm    = 1.23783
    Cd    = 0.156418
    Cl    = 1.06924
    Cl(f) = 1.77245
    Cl(r) = -0.703213

forceCoeffs canard_7 write:
    Cm    = 1.52115
    Cd    = 0.156418
    Cl    = 1.06924
    Cl(f) = 2.05577
    Cl(r) = -0.986532

forceCoeffs canard_8 write:
    Cm    = 1.80447
    Cd    = 0.156418
    Cl    = 1.06924
    Cl(f) = 2.33909
    Cl(r) = -1.26985

forceCoeffs canard_9 write:
    Cm    = 2.08779
    Cd    = 0.156418
    Cl    = 1.06924
    Cl(f) = 2.62241
    Cl(r) = -1.55317

forceCoeffs canard_10 write:
    Cm    = 2.37111
    Cd    = 0.156418
    Cl    = 1.06924
    Cl(f) = 2.90573
    Cl(r) = -1.83649

forceCoeffs canard_11 write:
    Cm    = 2.65443
    Cd    = 0.156418
    Cl    = 1.06924
    Cl(f) = 3.18905
    Cl(r) = -2.11981

Time = 17s

smoothSolver:  Solving for Ux, Initial residual = 0.00643651, Final residual = 0.000349527, No Iterations 4
smoothSolver:  Solving for Uy, Initial residual = 0.00432736, Final residual = 0.000245178, No Iterations 4
smoothSolver:  Solving for Uz, Initial residual = 0.0508871, Final residual = 0.00274896, No Iterations 4
GAMG:  Solving for p, Initial residual = 0.0603198, Final residual = 0.00278512, No Iterations 3
time step continuity errors : sum local = 0.000310116, global = 6.0889e-06, cumulative = 4.1966e-05
smoothSolver:  Solving for nuTilda, Initial residual = 0.0137224, Final residual = 0.000497848, No Iterations 2
bounding nuTilda, min: -0.00645777 max: 0.0707649 average: 0.0147253
ExecutionTime = 186.72 s  ClockTime = 187 s

forceCoeffs canard_1 write:
    Cm    = -0.152444
    Cd    = 0.136556
    Cl    = 1.06051
    Cl(f) = 0.377809
    Cl(r) = 0.682697

forceCoeffs canard_2 write:
    Cm    = 0.127716
    Cd    = 0.136556
    Cl    = 1.06051
    Cl(f) = 0.657969
    Cl(r) = 0.402538

forceCoeffs canard_3 write:
    Cm    = 0.407875
    Cd    = 0.136556
    Cl    = 1.06051
    Cl(f) = 0.938128
    Cl(r) = 0.122378

forceCoeffs canard_4 write:
    Cm    = 0.688034
    Cd    = 0.136556
    Cl    = 1.06051
    Cl(f) = 1.21829
    Cl(r) = -0.157781

forceCoeffs canard_5 write:
    Cm    = 0.968194
    Cd    = 0.136556
    Cl    = 1.06051
    Cl(f) = 1.49845
    Cl(r) = -0.43794

forceCoeffs canard_6 write:
    Cm    = 1.24835
    Cd    = 0.136556
    Cl    = 1.06051
    Cl(f) = 1.77861
    Cl(r) = -0.7181

forceCoeffs canard_7 write:
    Cm    = 1.52851
    Cd    = 0.136556
    Cl    = 1.06051
    Cl(f) = 2.05877
    Cl(r) = -0.998259

forceCoeffs canard_8 write:
    Cm    = 1.80867
    Cd    = 0.136556
    Cl    = 1.06051
    Cl(f) = 2.33892
    Cl(r) = -1.27842

forceCoeffs canard_9 write:
    Cm    = 2.08883
    Cd    = 0.136556
    Cl    = 1.06051
    Cl(f) = 2.61908
    Cl(r) = -1.55858

forceCoeffs canard_10 write:
    Cm    = 2.36899
    Cd    = 0.136556
    Cl    = 1.06051
    Cl(f) = 2.89924
    Cl(r) = -1.83874

forceCoeffs canard_11 write:
    Cm    = 2.64915
    Cd    = 0.136556
    Cl    = 1.06051
    Cl(f) = 3.1794
    Cl(r) = -2.1189

Time = 18s

smoothSolver:  Solving for Ux, Initial residual = 0.00632116, Final residual = 0.000337398, No Iterations 4
smoothSolver:  Solving for Uy, Initial residual = 0.00459699, Final residual = 0.000250608, No Iterations 4
smoothSolver:  Solving for Uz, Initial residual = 0.0472612, Final residual = 0.00244157, No Iterations 4
GAMG:  Solving for p, Initial residual = 0.0475982, Final residual = 0.00467832, No Iterations 2
time step continuity errors : sum local = 0.00063833, global = 3.2467e-05, cumulative = 7.4433e-05
smoothSolver:  Solving for nuTilda, Initial residual = 0.0137204, Final residual = 0.00109436, No Iterations 2
bounding nuTilda, min: -0.00437038 max: 0.0707649 average: 0.0146497
ExecutionTime = 196.19 s  ClockTime = 197 s

forceCoeffs canard_1 write:
    Cm    = -0.176426
    Cd    = 0.152218
    Cl    = 1.09656
    Cl(f) = 0.371853
    Cl(r) = 0.724706

forceCoeffs canard_2 write:
    Cm    = 0.113759
    Cd    = 0.152218
    Cl    = 1.09656
    Cl(f) = 0.662039
    Cl(r) = 0.434521

forceCoeffs canard_3 write:
    Cm    = 0.403945
    Cd    = 0.152218
    Cl    = 1.09656
    Cl(f) = 0.952224
    Cl(r) = 0.144335

forceCoeffs canard_4 write:
    Cm    = 0.69413
    Cd    = 0.152218
    Cl    = 1.09656
    Cl(f) = 1.24241
    Cl(r) = -0.145851

forceCoeffs canard_5 write:
    Cm    = 0.984316
    Cd    = 0.152218
    Cl    = 1.09656
    Cl(f) = 1.5326
    Cl(r) = -0.436036

forceCoeffs canard_6 write:
    Cm    = 1.2745
    Cd    = 0.152218
    Cl    = 1.09656
    Cl(f) = 1.82278
    Cl(r) = -0.726222

forceCoeffs canard_7 write:
    Cm    = 1.56469
    Cd    = 0.152218
    Cl    = 1.09656
    Cl(f) = 2.11297
    Cl(r) = -1.01641

forceCoeffs canard_8 write:
    Cm    = 1.85487
    Cd    = 0.152218
    Cl    = 1.09656
    Cl(f) = 2.40315
    Cl(r) = -1.30659

forceCoeffs canard_9 write:
    Cm    = 2.14506
    Cd    = 0.152218
    Cl    = 1.09656
    Cl(f) = 2.69334
    Cl(r) = -1.59678

forceCoeffs canard_10 write:
    Cm    = 2.43524
    Cd    = 0.152218
    Cl    = 1.09656
    Cl(f) = 2.98352
    Cl(r) = -1.88696

forceCoeffs canard_11 write:
    Cm    = 2.72543
    Cd    = 0.152218
    Cl    = 1.09656
    Cl(f) = 3.27371
    Cl(r) = -2.17715

Time = 19s

smoothSolver:  Solving for Ux, Initial residual = 0.00596507, Final residual = 0.000316745, No Iterations 4
smoothSolver:  Solving for Uy, Initial residual = 0.00446275, Final residual = 0.000241445, No Iterations 4
smoothSolver:  Solving for Uz, Initial residual = 0.0404901, Final residual = 0.00208176, No Iterations 4
GAMG:  Solving for p, Initial residual = 0.0466114, Final residual = 0.00233449, No Iterations 3
time step continuity errors : sum local = 0.00030697, global = 2.66287e-05, cumulative = 0.000101062
smoothSolver:  Solving for nuTilda, Initial residual = 0.0137682, Final residual = 0.000311939, No Iterations 2
bounding nuTilda, min: -0.00645529 max: 0.0707649 average: 0.0145815
ExecutionTime = 206.022 s  ClockTime = 206 s

forceCoeffs canard_1 write:
    Cm    = -0.191797
    Cd    = 0.165471
    Cl    = 1.10114
    Cl(f) = 0.358771
    Cl(r) = 0.742365

forceCoeffs canard_2 write:
    Cm    = 0.100174
    Cd    = 0.165471
    Cl    = 1.10114
    Cl(f) = 0.650742
    Cl(r) = 0.450394

forceCoeffs canard_3 write:
    Cm    = 0.392145
    Cd    = 0.165471
    Cl    = 1.10114
    Cl(f) = 0.942713
    Cl(r) = 0.158423

forceCoeffs canard_4 write:
    Cm    = 0.684117
    Cd    = 0.165471
    Cl    = 1.10114
    Cl(f) = 1.23468
    Cl(r) = -0.133549

forceCoeffs canard_5 write:
    Cm    = 0.976088
    Cd    = 0.165471
    Cl    = 1.10114
    Cl(f) = 1.52666
    Cl(r) = -0.42552

forceCoeffs canard_6 write:
    Cm    = 1.26806
    Cd    = 0.165471
    Cl    = 1.10114
    Cl(f) = 1.81863
    Cl(r) = -0.717492

forceCoeffs canard_7 write:
    Cm    = 1.56003
    Cd    = 0.165471
    Cl    = 1.10114
    Cl(f) = 2.1106
    Cl(r) = -1.00946

forceCoeffs canard_8 write:
    Cm    = 1.852
    Cd    = 0.165471
    Cl    = 1.10114
    Cl(f) = 2.40257
    Cl(r) = -1.30143

forceCoeffs canard_9 write:
    Cm    = 2.14397
    Cd    = 0.165471
    Cl    = 1.10114
    Cl(f) = 2.69454
    Cl(r) = -1.59341

forceCoeffs canard_10 write:
    Cm    = 2.43595
    Cd    = 0.165471
    Cl    = 1.10114
    Cl(f) = 2.98651
    Cl(r) = -1.88538

forceCoeffs canard_11 write:
    Cm    = 2.72792
    Cd    = 0.165471
    Cl    = 1.10114
    Cl(f) = 3.27848
    Cl(r) = -2.17735

Time = 20s

smoothSolver:  Solving for Ux, Initial residual = 0.00527226, Final residual = 0.000279156, No Iterations 4
smoothSolver:  Solving for Uy, Initial residual = 0.00404623, Final residual = 0.000225481, No Iterations 4
smoothSolver:  Solving for Uz, Initial residual = 0.0320608, Final residual = 0.00168785, No Iterations 4
GAMG:  Solving for p, Initial residual = 0.0493249, Final residual = 0.00466919, No Iterations 2
time step continuity errors : sum local = 0.000509441, global = 2.89324e-05, cumulative = 0.000129994
smoothSolver:  Solving for nuTilda, Initial residual = 0.0121844, Final residual = 0.000465886, No Iterations 2
bounding nuTilda, min: -0.00776449 max: 0.0707649 average: 0.0145215
ExecutionTime = 221.68 s  ClockTime = 222 s

forceCoeffs canard_1 write:
    Cm    = -0.182896
    Cd    = 0.163203
    Cl    = 1.08141
    Cl(f) = 0.357806
    Cl(r) = 0.723599

forceCoeffs canard_2 write:
    Cm    = 0.103875
    Cd    = 0.163203
    Cl    = 1.08141
    Cl(f) = 0.644578
    Cl(r) = 0.436828

forceCoeffs canard_3 write:
    Cm    = 0.390647
    Cd    = 0.163203
    Cl    = 1.08141
    Cl(f) = 0.931349
    Cl(r) = 0.150056

forceCoeffs canard_4 write:
    Cm    = 0.677418
    Cd    = 0.163203
    Cl    = 1.08141
    Cl(f) = 1.21812
    Cl(r) = -0.136715

forceCoeffs canard_5 write:
    Cm    = 0.96419
    Cd    = 0.163203
    Cl    = 1.08141
    Cl(f) = 1.50489
    Cl(r) = -0.423487

forceCoeffs canard_6 write:
    Cm    = 1.25096
    Cd    = 0.163203
    Cl    = 1.08141
    Cl(f) = 1.79166
    Cl(r) = -0.710258

forceCoeffs canard_7 write:
    Cm    = 1.53773
    Cd    = 0.163203
    Cl    = 1.08141
    Cl(f) = 2.07844
    Cl(r) = -0.99703

forceCoeffs canard_8 write:
    Cm    = 1.8245
    Cd    = 0.163203
    Cl    = 1.08141
    Cl(f) = 2.36521
    Cl(r) = -1.2838

forceCoeffs canard_9 write:
    Cm    = 2.11128
    Cd    = 0.163203
    Cl    = 1.08141
    Cl(f) = 2.65198
    Cl(r) = -1.57057

forceCoeffs canard_10 write:
    Cm    = 2.39805
    Cd    = 0.163203
    Cl    = 1.08141
    Cl(f) = 2.93875
    Cl(r) = -1.85734

forceCoeffs canard_11 write:
    Cm    = 2.68482
    Cd    = 0.163203
    Cl    = 1.08141
    Cl(f) = 3.22552
    Cl(r) = -2.14412

Time = 21s

smoothSolver:  Solving for Ux, Initial residual = 0.00490729, Final residual = 0.000257617, No Iterations 4
smoothSolver:  Solving for Uy, Initial residual = 0.00376108, Final residual = 0.000207145, No Iterations 4
smoothSolver:  Solving for Uz, Initial residual = 0.0298883, Final residual = 0.00160365, No Iterations 4
GAMG:  Solving for p, Initial residual = 0.0536777, Final residual = 0.00520098, No Iterations 2
time step continuity errors : sum local = 0.000500545, global = 6.45933e-06, cumulative = 0.000136453
smoothSolver:  Solving for nuTilda, Initial residual = 0.0126123, Final residual = 0.00102023, No Iterations 2
bounding nuTilda, min: -0.00781608 max: 0.0707649 average: 0.0144669
ExecutionTime = 231.896 s  ClockTime = 232 s

forceCoeffs canard_1 write:
    Cm    = -0.165333
    Cd    = 0.157161
    Cl    = 1.06074
    Cl(f) = 0.365038
    Cl(r) = 0.695703

forceCoeffs canard_2 write:
    Cm    = 0.115826
    Cd    = 0.157161
    Cl    = 1.06074
    Cl(f) = 0.646196
    Cl(r) = 0.414545

forceCoeffs canard_3 write:
    Cm    = 0.396984
    Cd    = 0.157161
    Cl    = 1.06074
    Cl(f) = 0.927354
    Cl(r) = 0.133386

forceCoeffs canard_4 write:
    Cm    = 0.678142
    Cd    = 0.157161
    Cl    = 1.06074
    Cl(f) = 1.20851
    Cl(r) = -0.147772

forceCoeffs canard_5 write:
    Cm    = 0.959301
    Cd    = 0.157161
    Cl    = 1.06074
    Cl(f) = 1.48967
    Cl(r) = -0.42893

forceCoeffs canard_6 write:
    Cm    = 1.24046
    Cd    = 0.157161
    Cl    = 1.06074
    Cl(f) = 1.77083
    Cl(r) = -0.710089

forceCoeffs canard_7 write:
    Cm    = 1.52162
    Cd    = 0.157161
    Cl    = 1.06074
    Cl(f) = 2.05199
    Cl(r) = -0.991247

forceCoeffs canard_8 write:
    Cm    = 1.80278
    Cd    = 0.157161
    Cl    = 1.06074
    Cl(f) = 2.33315
    Cl(r) = -1.27241

forceCoeffs canard_9 write:
    Cm    = 2.08393
    Cd    = 0.157161
    Cl    = 1.06074
    Cl(f) = 2.6143
    Cl(r) = -1.55356

forceCoeffs canard_10 write:
    Cm    = 2.36509
    Cd    = 0.157161
    Cl    = 1.06074
    Cl(f) = 2.89546
    Cl(r) = -1.83472

forceCoeffs canard_11 write:
    Cm    = 2.64625
    Cd    = 0.157161
    Cl    = 1.06074
    Cl(f) = 3.17662
    Cl(r) = -2.11588

Time = 22s

smoothSolver:  Solving for Ux, Initial residual = 0.0045606, Final residual = 0.000240627, No Iterations 4
smoothSolver:  Solving for Uy, Initial residual = 0.00350178, Final residual = 0.000188695, No Iterations 4
smoothSolver:  Solving for Uz, Initial residual = 0.0286006, Final residual = 0.00153571, No Iterations 4
GAMG:  Solving for p, Initial residual = 0.0505879, Final residual = 0.00493753, No Iterations 2
time step continuity errors : sum local = 0.000466928, global = -1.18773e-05, cumulative = 0.000124576
smoothSolver:  Solving for nuTilda, Initial residual = 0.0134594, Final residual = 0.00020616, No Iterations 2
bounding nuTilda, min: -0.00635767 max: 0.0707649 average: 0.014418
ExecutionTime = 241.163 s  ClockTime = 241 s

forceCoeffs canard_1 write:
    Cm    = -0.157526
    Cd    = 0.159888
    Cl    = 1.07128
    Cl(f) = 0.378116
    Cl(r) = 0.693168

forceCoeffs canard_2 write:
    Cm    = 0.12648
    Cd    = 0.159888
    Cl    = 1.07128
    Cl(f) = 0.662122
    Cl(r) = 0.409162

forceCoeffs canard_3 write:
    Cm    = 0.410486
    Cd    = 0.159888
    Cl    = 1.07128
    Cl(f) = 0.946128
    Cl(r) = 0.125156

forceCoeffs canard_4 write:
    Cm    = 0.694492
    Cd    = 0.159888
    Cl    = 1.07128
    Cl(f) = 1.23013
    Cl(r) = -0.15885

forceCoeffs canard_5 write:
    Cm    = 0.978498
    Cd    = 0.159888
    Cl    = 1.07128
    Cl(f) = 1.51414
    Cl(r) = -0.442856

forceCoeffs canard_6 write:
    Cm    = 1.2625
    Cd    = 0.159888
    Cl    = 1.07128
    Cl(f) = 1.79815
    Cl(r) = -0.726862

forceCoeffs canard_7 write:
    Cm    = 1.54651
    Cd    = 0.159888
    Cl    = 1.07128
    Cl(f) = 2.08215
    Cl(r) = -1.01087

forceCoeffs canard_8 write:
    Cm    = 1.83052
    Cd    = 0.159888
    Cl    = 1.07128
    Cl(f) = 2.36616
    Cl(r) = -1.29487

forceCoeffs canard_9 write:
    Cm    = 2.11452
    Cd    = 0.159888
    Cl    = 1.07128
    Cl(f) = 2.65016
    Cl(r) = -1.57888

forceCoeffs canard_10 write:
    Cm    = 2.39853
    Cd    = 0.159888
    Cl    = 1.07128
    Cl(f) = 2.93417
    Cl(r) = -1.86289

forceCoeffs canard_11 write:
    Cm    = 2.68253
    Cd    = 0.159888
    Cl    = 1.07128
    Cl(f) = 3.21818
    Cl(r) = -2.14689

Time = 23s

smoothSolver:  Solving for Ux, Initial residual = 0.00450014, Final residual = 0.000239958, No Iterations 4
smoothSolver:  Solving for Uy, Initial residual = 0.00341699, Final residual = 0.000184052, No Iterations 4
smoothSolver:  Solving for Uz, Initial residual = 0.0287395, Final residual = 0.0015322, No Iterations 4
GAMG:  Solving for p, Initial residual = 0.0420842, Final residual = 0.00195387, No Iterations 3
time step continuity errors : sum local = 0.00020017, global = -1.84511e-05, cumulative = 0.000106125
smoothSolver:  Solving for nuTilda, Initial residual = 0.0117692, Final residual = 0.000496256, No Iterations 2
bounding nuTilda, min: -0.00596517 max: 0.0707649 average: 0.014374
ExecutionTime = 250.528 s  ClockTime = 251 s

forceCoeffs canard_1 write:
    Cm    = -0.162645
    Cd    = 0.170458
    Cl    = 1.11813
    Cl(f) = 0.396418
    Cl(r) = 0.721708

forceCoeffs canard_2 write:
    Cm    = 0.133942
    Cd    = 0.170458
    Cl    = 1.11813
    Cl(f) = 0.693005
    Cl(r) = 0.425121

forceCoeffs canard_3 write:
    Cm    = 0.430529
    Cd    = 0.170458
    Cl    = 1.11813
    Cl(f) = 0.989592
    Cl(r) = 0.128533

forceCoeffs canard_4 write:
    Cm    = 0.727116
    Cd    = 0.170458
    Cl    = 1.11813
    Cl(f) = 1.28618
    Cl(r) = -0.168054

forceCoeffs canard_5 write:
    Cm    = 1.0237
    Cd    = 0.170458
    Cl    = 1.11813
    Cl(f) = 1.58277
    Cl(r) = -0.464641

forceCoeffs canard_6 write:
    Cm    = 1.32029
    Cd    = 0.170458
    Cl    = 1.11813
    Cl(f) = 1.87935
    Cl(r) = -0.761228

forceCoeffs canard_7 write:
    Cm    = 1.61688
    Cd    = 0.170458
    Cl    = 1.11813
    Cl(f) = 2.17594
    Cl(r) = -1.05782

forceCoeffs canard_8 write:
    Cm    = 1.91347
    Cd    = 0.170458
    Cl    = 1.11813
    Cl(f) = 2.47253
    Cl(r) = -1.3544

forceCoeffs canard_9 write:
    Cm    = 2.21005
    Cd    = 0.170458
    Cl    = 1.11813
    Cl(f) = 2.76911
    Cl(r) = -1.65099

forceCoeffs canard_10 write:
    Cm    = 2.50664
    Cd    = 0.170458
    Cl    = 1.11813
    Cl(f) = 3.0657
    Cl(r) = -1.94758

forceCoeffs canard_11 write:
    Cm    = 2.80323
    Cd    = 0.170458
    Cl    = 1.11813
    Cl(f) = 3.36229
    Cl(r) = -2.24416

Time = 24s

smoothSolver:  Solving for Ux, Initial residual = 0.00463053, Final residual = 0.00024644, No Iterations 4
smoothSolver:  Solving for Uy, Initial residual = 0.00349425, Final residual = 0.00018894, No Iterations 4
smoothSolver:  Solving for Uz, Initial residual = 0.0306172, Final residual = 0.00160623, No Iterations 4
GAMG:  Solving for p, Initial residual = 0.0355152, Final residual = 0.00326558, No Iterations 2
time step continuity errors : sum local = 0.000370639, global = -2.30868e-05, cumulative = 8.30383e-05
smoothSolver:  Solving for nuTilda, Initial residual = 0.0126076, Final residual = 0.00111131, No Iterations 2
bounding nuTilda, min: -0.00798328 max: 0.0707649 average: 0.0143344
ExecutionTime = 259.762 s  ClockTime = 260 s

forceCoeffs canard_1 write:
    Cm    = -0.164065
    Cd    = 0.173198
    Cl    = 1.14278
    Cl(f) = 0.407326
    Cl(r) = 0.735457

forceCoeffs canard_2 write:
    Cm    = 0.139016
    Cd    = 0.173198
    Cl    = 1.14278
    Cl(f) = 0.710407
    Cl(r) = 0.432375

forceCoeffs canard_3 write:
    Cm    = 0.442097
    Cd    = 0.173198
    Cl    = 1.14278
    Cl(f) = 1.01349
    Cl(r) = 0.129294

forceCoeffs canard_4 write:
    Cm    = 0.745178
    Cd    = 0.173198
    Cl    = 1.14278
    Cl(f) = 1.31657
    Cl(r) = -0.173787

forceCoeffs canard_5 write:
    Cm    = 1.04826
    Cd    = 0.173198
    Cl    = 1.14278
    Cl(f) = 1.61965
    Cl(r) = -0.476868

forceCoeffs canard_6 write:
    Cm    = 1.35134
    Cd    = 0.173198
    Cl    = 1.14278
    Cl(f) = 1.92273
    Cl(r) = -0.779949

forceCoeffs canard_7 write:
    Cm    = 1.65442
    Cd    = 0.173198
    Cl    = 1.14278
    Cl(f) = 2.22581
    Cl(r) = -1.08303

forceCoeffs canard_8 write:
    Cm    = 1.9575
    Cd    = 0.173198
    Cl    = 1.14278
    Cl(f) = 2.52889
    Cl(r) = -1.38611

forceCoeffs canard_9 write:
    Cm    = 2.26058
    Cd    = 0.173198
    Cl    = 1.14278
    Cl(f) = 2.83198
    Cl(r) = -1.68919

forceCoeffs canard_10 write:
    Cm    = 2.56366
    Cd    = 0.173198
    Cl    = 1.14278
    Cl(f) = 3.13506
    Cl(r) = -1.99227

forceCoeffs canard_11 write:
    Cm    = 2.86675
    Cd    = 0.173198
    Cl    = 1.14278
    Cl(f) = 3.43814
    Cl(r) = -2.29535

Time = 25s

smoothSolver:  Solving for Ux, Initial residual = 0.00448938, Final residual = 0.000237376, No Iterations 4
smoothSolver:  Solving for Uy, Initial residual = 0.00350279, Final residual = 0.000184129, No Iterations 4
smoothSolver:  Solving for Uz, Initial residual = 0.0292951, Final residual = 0.00148686, No Iterations 4
GAMG:  Solving for p, Initial residual = 0.0329907, Final residual = 0.00328842, No Iterations 2
time step continuity errors : sum local = 0.000386242, global = -1.00451e-06, cumulative = 8.20338e-05
smoothSolver:  Solving for nuTilda, Initial residual = 0.0127214, Final residual = 0.000174541, No Iterations 2
bounding nuTilda, min: -0.00955287 max: 0.0707649 average: 0.0142987
ExecutionTime = 269.022 s  ClockTime = 269 s

forceCoeffs canard_1 write:
    Cm    = -0.154453
    Cd    = 0.165379
    Cl    = 1.14448
    Cl(f) = 0.417788
    Cl(r) = 0.726693

forceCoeffs canard_2 write:
    Cm    = 0.148711
    Cd    = 0.165379
    Cl    = 1.14448
    Cl(f) = 0.720952
    Cl(r) = 0.423529

forceCoeffs canard_3 write:
    Cm    = 0.451875
    Cd    = 0.165379
    Cl    = 1.14448
    Cl(f) = 1.02412
    Cl(r) = 0.120366

forceCoeffs canard_4 write:
    Cm    = 0.755039
    Cd    = 0.165379
    Cl    = 1.14448
    Cl(f) = 1.32728
    Cl(r) = -0.182798

forceCoeffs canard_5 write:
    Cm    = 1.0582
    Cd    = 0.165379
    Cl    = 1.14448
    Cl(f) = 1.63044
    Cl(r) = -0.485962

forceCoeffs canard_6 write:
    Cm    = 1.36137
    Cd    = 0.165379
    Cl    = 1.14448
    Cl(f) = 1.93361
    Cl(r) = -0.789125

forceCoeffs canard_7 write:
    Cm    = 1.66453
    Cd    = 0.165379
    Cl    = 1.14448
    Cl(f) = 2.23677
    Cl(r) = -1.09229

forceCoeffs canard_8 write:
    Cm    = 1.96769
    Cd    = 0.165379
    Cl    = 1.14448
    Cl(f) = 2.53993
    Cl(r) = -1.39545

forceCoeffs canard_9 write:
    Cm    = 2.27086
    Cd    = 0.165379
    Cl    = 1.14448
    Cl(f) = 2.8431
    Cl(r) = -1.69862

forceCoeffs canard_10 write:
    Cm    = 2.57402
    Cd    = 0.165379
    Cl    = 1.14448
    Cl(f) = 3.14626
    Cl(r) = -2.00178

forceCoeffs canard_11 write:
    Cm    = 2.87718
    Cd    = 0.165379
    Cl    = 1.14448
    Cl(f) = 3.44943
    Cl(r) = -2.30494

Time = 26s

smoothSolver:  Solving for Ux, Initial residual = 0.00422405, Final residual = 0.000221817, No Iterations 4
smoothSolver:  Solving for Uy, Initial residual = 0.00346974, Final residual = 0.000180268, No Iterations 4
smoothSolver:  Solving for Uz, Initial residual = 0.0263593, Final residual = 0.00130775, No Iterations 4
GAMG:  Solving for p, Initial residual = 0.0311238, Final residual = 0.0030768, No Iterations 2
time step continuity errors : sum local = 0.000358274, global = 8.7072e-06, cumulative = 9.0741e-05
smoothSolver:  Solving for nuTilda, Initial residual = 0.0121237, Final residual = 0.000469171, No Iterations 2
bounding nuTilda, min: -0.00568253 max: 0.0707649 average: 0.0142661
ExecutionTime = 278.561 s  ClockTime = 279 s

forceCoeffs canard_1 write:
    Cm    = -0.136853
    Cd    = 0.150541
    Cl    = 1.12049
    Cl(f) = 0.423394
    Cl(r) = 0.697101

forceCoeffs canard_2 write:
    Cm    = 0.159439
    Cd    = 0.150541
    Cl    = 1.12049
    Cl(f) = 0.719686
    Cl(r) = 0.400809

forceCoeffs canard_3 write:
    Cm    = 0.45573
    Cd    = 0.150541
    Cl    = 1.12049
    Cl(f) = 1.01598
    Cl(r) = 0.104517

forceCoeffs canard_4 write:
    Cm    = 0.752022
    Cd    = 0.150541
    Cl    = 1.12049
    Cl(f) = 1.31227
    Cl(r) = -0.191775

forceCoeffs canard_5 write:
    Cm    = 1.04831
    Cd    = 0.150541
    Cl    = 1.12049
    Cl(f) = 1.60856
    Cl(r) = -0.488067

forceCoeffs canard_6 write:
    Cm    = 1.34461
    Cd    = 0.150541
    Cl    = 1.12049
    Cl(f) = 1.90485
    Cl(r) = -0.784359

forceCoeffs canard_7 write:
    Cm    = 1.6409
    Cd    = 0.150541
    Cl    = 1.12049
    Cl(f) = 2.20115
    Cl(r) = -1.08065

forceCoeffs canard_8 write:
    Cm    = 1.93719
    Cd    = 0.150541
    Cl    = 1.12049
    Cl(f) = 2.49744
    Cl(r) = -1.37694

forceCoeffs canard_9 write:
    Cm    = 2.23348
    Cd    = 0.150541
    Cl    = 1.12049
    Cl(f) = 2.79373
    Cl(r) = -1.67323

forceCoeffs canard_10 write:
    Cm    = 2.52977
    Cd    = 0.150541
    Cl    = 1.12049
    Cl(f) = 3.09002
    Cl(r) = -1.96953

forceCoeffs canard_11 write:
    Cm    = 2.82607
    Cd    = 0.150541
    Cl    = 1.12049
    Cl(f) = 3.38631
    Cl(r) = -2.26582

Time = 27s

smoothSolver:  Solving for Ux, Initial residual = 0.00407686, Final residual = 0.000213202, No Iterations 4
smoothSolver:  Solving for Uy, Initial residual = 0.00337969, Final residual = 0.00017653, No Iterations 4
smoothSolver:  Solving for Uz, Initial residual = 0.0234453, Final residual = 0.00118213, No Iterations 4
GAMG:  Solving for p, Initial residual = 0.0298118, Final residual = 0.0027301, No Iterations 2
time step continuity errors : sum local = 0.000308611, global = 2.16311e-05, cumulative = 0.000112372
smoothSolver:  Solving for nuTilda, Initial residual = 0.0121481, Final residual = 0.00100792, No Iterations 2
bounding nuTilda, min: -0.00743933 max: 0.0707649 average: 0.0142357
ExecutionTime = 288.068 s  ClockTime = 288 s

forceCoeffs canard_1 write:
    Cm    = -0.123398
    Cd    = 0.139646
    Cl    = 1.0934
    Cl(f) = 0.423301
    Cl(r) = 0.670096

forceCoeffs canard_2 write:
    Cm    = 0.165398
    Cd    = 0.139646
    Cl    = 1.0934
    Cl(f) = 0.712097
    Cl(r) = 0.3813

forceCoeffs canard_3 write:
    Cm    = 0.454195
    Cd    = 0.139646
    Cl    = 1.0934
    Cl(f) = 1.00089
    Cl(r) = 0.092504

forceCoeffs canard_4 write:
    Cm    = 0.742991
    Cd    = 0.139646
    Cl    = 1.0934
    Cl(f) = 1.28969
    Cl(r) = -0.196292

forceCoeffs canard_5 write:
    Cm    = 1.03179
    Cd    = 0.139646
    Cl    = 1.0934
    Cl(f) = 1.57849
    Cl(r) = -0.485088

forceCoeffs canard_6 write:
    Cm    = 1.32058
    Cd    = 0.139646
    Cl    = 1.0934
    Cl(f) = 1.86728
    Cl(r) = -0.773884

forceCoeffs canard_7 write:
    Cm    = 1.60938
    Cd    = 0.139646
    Cl    = 1.0934
    Cl(f) = 2.15608
    Cl(r) = -1.06268

forceCoeffs canard_8 write:
    Cm    = 1.89818
    Cd    = 0.139646
    Cl    = 1.0934
    Cl(f) = 2.44487
    Cl(r) = -1.35148

forceCoeffs canard_9 write:
    Cm    = 2.18697
    Cd    = 0.139646
    Cl    = 1.0934
    Cl(f) = 2.73367
    Cl(r) = -1.64027

forceCoeffs canard_10 write:
    Cm    = 2.47577
    Cd    = 0.139646
    Cl    = 1.0934
    Cl(f) = 3.02247
    Cl(r) = -1.92907

forceCoeffs canard_11 write:
    Cm    = 2.76456
    Cd    = 0.139646
    Cl    = 1.0934
    Cl(f) = 3.31126
    Cl(r) = -2.21786

Time = 28s

smoothSolver:  Solving for Ux, Initial residual = 0.00396271, Final residual = 0.000201753, No Iterations 4
smoothSolver:  Solving for Uy, Initial residual = 0.0031836, Final residual = 0.000169327, No Iterations 4
smoothSolver:  Solving for Uz, Initial residual = 0.0212307, Final residual = 0.00110082, No Iterations 4
GAMG:  Solving for p, Initial residual = 0.0281493, Final residual = 0.00262967, No Iterations 2
time step continuity errors : sum local = 0.000291885, global = 2.25559e-05, cumulative = 0.000134928
smoothSolver:  Solving for nuTilda, Initial residual = 0.0136698, Final residual = 0.000222329, No Iterations 2
bounding nuTilda, min: -0.00665559 max: 0.0707649 average: 0.0142073
ExecutionTime = 297.395 s  ClockTime = 298 s

forceCoeffs canard_1 write:
    Cm    = -0.119564
    Cd    = 0.137035
    Cl    = 1.07878
    Cl(f) = 0.419823
    Cl(r) = 0.658952

forceCoeffs canard_2 write:
    Cm    = 0.165336
    Cd    = 0.137035
    Cl    = 1.07878
    Cl(f) = 0.704723
    Cl(r) = 0.374052

forceCoeffs canard_3 write:
    Cm    = 0.450236
    Cd    = 0.137035
    Cl    = 1.07878
    Cl(f) = 0.989624
    Cl(r) = 0.0891514

forceCoeffs canard_4 write:
    Cm    = 0.735136
    Cd    = 0.137035
    Cl    = 1.07878
    Cl(f) = 1.27452
    Cl(r) = -0.195749

forceCoeffs canard_5 write:
    Cm    = 1.02004
    Cd    = 0.137035
    Cl    = 1.07878
    Cl(f) = 1.55942
    Cl(r) = -0.480649

forceCoeffs canard_6 write:
    Cm    = 1.30494
    Cd    = 0.137035
    Cl    = 1.07878
    Cl(f) = 1.84432
    Cl(r) = -0.765549

forceCoeffs canard_7 write:
    Cm    = 1.58984
    Cd    = 0.137035
    Cl    = 1.07878
    Cl(f) = 2.12922
    Cl(r) = -1.05045

forceCoeffs canard_8 write:
    Cm    = 1.87474
    Cd    = 0.137035
    Cl    = 1.07878
    Cl(f) = 2.41412
    Cl(r) = -1.33535

forceCoeffs canard_9 write:
    Cm    = 2.15964
    Cd    = 0.137035
    Cl    = 1.07878
    Cl(f) = 2.69902
    Cl(r) = -1.62025

forceCoeffs canard_10 write:
    Cm    = 2.44454
    Cd    = 0.137035
    Cl    = 1.07878
    Cl(f) = 2.98392
    Cl(r) = -1.90515

forceCoeffs canard_11 write:
    Cm    = 2.72944
    Cd    = 0.137035
    Cl    = 1.07878
    Cl(f) = 3.26883
    Cl(r) = -2.19005

Time = 29s

smoothSolver:  Solving for Ux, Initial residual = 0.00380685, Final residual = 0.000192617, No Iterations 4
smoothSolver:  Solving for Uy, Initial residual = 0.00304971, Final residual = 0.000163891, No Iterations 4
smoothSolver:  Solving for Uz, Initial residual = 0.0198624, Final residual = 0.00104793, No Iterations 4
GAMG:  Solving for p, Initial residual = 0.0263253, Final residual = 0.00244456, No Iterations 2
time step continuity errors : sum local = 0.000272174, global = 9.68915e-06, cumulative = 0.000144617
smoothSolver:  Solving for nuTilda, Initial residual = 0.0122415, Final residual = 0.000567928, No Iterations 2
bounding nuTilda, min: -0.00739787 max: 0.0707649 average: 0.0141802
ExecutionTime = 306.695 s  ClockTime = 307 s

forceCoeffs canard_1 write:
    Cm    = -0.125517
    Cd    = 0.142639
    Cl    = 1.0851
    Cl(f) = 0.417034
    Cl(r) = 0.668068

forceCoeffs canard_2 write:
    Cm    = 0.161273
    Cd    = 0.142639
    Cl    = 1.0851
    Cl(f) = 0.703824
    Cl(r) = 0.381278

forceCoeffs canard_3 write:
    Cm    = 0.448063
    Cd    = 0.142639
    Cl    = 1.0851
    Cl(f) = 0.990614
    Cl(r) = 0.0944884

forceCoeffs canard_4 write:
    Cm    = 0.734853
    Cd    = 0.142639
    Cl    = 1.0851
    Cl(f) = 1.2774
    Cl(r) = -0.192302

forceCoeffs canard_5 write:
    Cm    = 1.02164
    Cd    = 0.142639
    Cl    = 1.0851
    Cl(f) = 1.56419
    Cl(r) = -0.479091

forceCoeffs canard_6 write:
    Cm    = 1.30843
    Cd    = 0.142639
    Cl    = 1.0851
    Cl(f) = 1.85098
    Cl(r) = -0.765881

forceCoeffs canard_7 write:
    Cm    = 1.59522
    Cd    = 0.142639
    Cl    = 1.0851
    Cl(f) = 2.13777
    Cl(r) = -1.05267

forceCoeffs canard_8 write:
    Cm    = 1.88201
    Cd    = 0.142639
    Cl    = 1.0851
    Cl(f) = 2.42456
    Cl(r) = -1.33946

forceCoeffs canard_9 write:
    Cm    = 2.1688
    Cd    = 0.142639
    Cl    = 1.0851
    Cl(f) = 2.71135
    Cl(r) = -1.62625

forceCoeffs canard_10 write:
    Cm    = 2.45559
    Cd    = 0.142639
    Cl    = 1.0851
    Cl(f) = 2.99814
    Cl(r) = -1.91304

forceCoeffs canard_11 write:
    Cm    = 2.74238
    Cd    = 0.142639
    Cl    = 1.0851
    Cl(f) = 3.28493
    Cl(r) = -2.19983

Time = 30s

smoothSolver:  Solving for Ux, Initial residual = 0.00368271, Final residual = 0.000192273, No Iterations 4
smoothSolver:  Solving for Uy, Initial residual = 0.00302814, Final residual = 0.000161058, No Iterations 4
smoothSolver:  Solving for Uz, Initial residual = 0.0199911, Final residual = 0.00105835, No Iterations 4
GAMG:  Solving for p, Initial residual = 0.0244342, Final residual = 0.00217018, No Iterations 2
time step continuity errors : sum local = 0.000246758, global = -3.73213e-06, cumulative = 0.000140885
smoothSolver:  Solving for nuTilda, Initial residual = 0.0122361, Final residual = 0.000985042, No Iterations 2
bounding nuTilda, min: -0.00758988 max: 0.0707649 average: 0.0141549
ExecutionTime = 322.363 s  ClockTime = 323 s

forceCoeffs canard_1 write:
    Cm    = -0.13429
    Cd    = 0.150408
    Cl    = 1.10619
    Cl(f) = 0.418807
    Cl(r) = 0.687387

forceCoeffs canard_2 write:
    Cm    = 0.158302
    Cd    = 0.150408
    Cl    = 1.10619
    Cl(f) = 0.711399
    Cl(r) = 0.394795

forceCoeffs canard_3 write:
    Cm    = 0.450894
    Cd    = 0.150408
    Cl    = 1.10619
    Cl(f) = 1.00399
    Cl(r) = 0.102203

forceCoeffs canard_4 write:
    Cm    = 0.743486
    Cd    = 0.150408
    Cl    = 1.10619
    Cl(f) = 1.29658
    Cl(r) = -0.190389

forceCoeffs canard_5 write:
    Cm    = 1.03608
    Cd    = 0.150408
    Cl    = 1.10619
    Cl(f) = 1.58917
    Cl(r) = -0.48298

forceCoeffs canard_6 write:
    Cm    = 1.32867
    Cd    = 0.150408
    Cl    = 1.10619
    Cl(f) = 1.88177
    Cl(r) = -0.775572

forceCoeffs canard_7 write:
    Cm    = 1.62126
    Cd    = 0.150408
    Cl    = 1.10619
    Cl(f) = 2.17436
    Cl(r) = -1.06816

forceCoeffs canard_8 write:
    Cm    = 1.91385
    Cd    = 0.150408
    Cl    = 1.10619
    Cl(f) = 2.46695
    Cl(r) = -1.36076

forceCoeffs canard_9 write:
    Cm    = 2.20645
    Cd    = 0.150408
    Cl    = 1.10619
    Cl(f) = 2.75954
    Cl(r) = -1.65335

forceCoeffs canard_10 write:
    Cm    = 2.49904
    Cd    = 0.150408
    Cl    = 1.10619
    Cl(f) = 3.05213
    Cl(r) = -1.94594

forceCoeffs canard_11 write:
    Cm    = 2.79163
    Cd    = 0.150408
    Cl    = 1.10619
    Cl(f) = 3.34473
    Cl(r) = -2.23853

Time = 31s

smoothSolver:  Solving for Ux, Initial residual = 0.00366327, Final residual = 0.00019406, No Iterations 4
smoothSolver:  Solving for Uy, Initial residual = 0.00294896, Final residual = 0.000157042, No Iterations 4
smoothSolver:  Solving for Uz, Initial residual = 0.0200273, Final residual = 0.00104459, No Iterations 4
GAMG:  Solving for p, Initial residual = 0.0221968, Final residual = 0.00202677, No Iterations 2
time step continuity errors : sum local = 0.000235639, global = -1.11026e-05, cumulative = 0.000129782
smoothSolver:  Solving for nuTilda, Initial residual = 0.012885, Final residual = 0.000197247, No Iterations 2
bounding nuTilda, min: -0.00935124 max: 0.0707649 average: 0.0141306
ExecutionTime = 332.154 s  ClockTime = 332 s

forceCoeffs canard_1 write:
    Cm    = -0.138934
    Cd    = 0.154165
    Cl    = 1.12774
    Cl(f) = 0.424937
    Cl(r) = 0.702804

forceCoeffs canard_2 write:
    Cm    = 0.159395
    Cd    = 0.154165
    Cl    = 1.12774
    Cl(f) = 0.723266
    Cl(r) = 0.404476

forceCoeffs canard_3 write:
    Cm    = 0.457724
    Cd    = 0.154165
    Cl    = 1.12774
    Cl(f) = 1.02159
    Cl(r) = 0.106147

forceCoeffs canard_4 write:
    Cm    = 0.756053
    Cd    = 0.154165
    Cl    = 1.12774
    Cl(f) = 1.31992
    Cl(r) = -0.192182

forceCoeffs canard_5 write:
    Cm    = 1.05438
    Cd    = 0.154165
    Cl    = 1.12774
    Cl(f) = 1.61825
    Cl(r) = -0.490511

forceCoeffs canard_6 write:
    Cm    = 1.35271
    Cd    = 0.154165
    Cl    = 1.12774
    Cl(f) = 1.91658
    Cl(r) = -0.78884

forceCoeffs canard_7 write:
    Cm    = 1.65104
    Cd    = 0.154165
    Cl    = 1.12774
    Cl(f) = 2.21491
    Cl(r) = -1.08717

forceCoeffs canard_8 write:
    Cm    = 1.94937
    Cd    = 0.154165
    Cl    = 1.12774
    Cl(f) = 2.51324
    Cl(r) = -1.3855

forceCoeffs canard_9 write:
    Cm    = 2.2477
    Cd    = 0.154165
    Cl    = 1.12774
    Cl(f) = 2.81157
    Cl(r) = -1.68383

forceCoeffs canard_10 write:
    Cm    = 2.54603
    Cd    = 0.154165
    Cl    = 1.12774
    Cl(f) = 3.1099
    Cl(r) = -1.98216

forceCoeffs canard_11 write:
    Cm    = 2.84436
    Cd    = 0.154165
    Cl    = 1.12774
    Cl(f) = 3.40823
    Cl(r) = -2.28048

Time = 32s

smoothSolver:  Solving for Ux, Initial residual = 0.00371559, Final residual = 0.00019046, No Iterations 4
smoothSolver:  Solving for Uy, Initial residual = 0.00288477, Final residual = 0.000154602, No Iterations 4
smoothSolver:  Solving for Uz, Initial residual = 0.0196363, Final residual = 0.000987705, No Iterations 4
GAMG:  Solving for p, Initial residual = 0.0205691, Final residual = 0.0019337, No Iterations 2
time step continuity errors : sum local = 0.00022721, global = -1.18531e-05, cumulative = 0.000117929
smoothSolver:  Solving for nuTilda, Initial residual = 0.012169, Final residual = 0.000506923, No Iterations 2
bounding nuTilda, min: -0.00533221 max: 0.0707649 average: 0.0141077
ExecutionTime = 341.691 s  ClockTime = 342 s

forceCoeffs canard_1 write:
    Cm    = -0.136699
    Cd    = 0.151362
    Cl    = 1.13828
    Cl(f) = 0.43244
    Cl(r) = 0.705838

forceCoeffs canard_2 write:
    Cm    = 0.164224
    Cd    = 0.151362
    Cl    = 1.13828
    Cl(f) = 0.733363
    Cl(r) = 0.404915

forceCoeffs canard_3 write:
    Cm    = 0.465147
    Cd    = 0.151362
    Cl    = 1.13828
    Cl(f) = 1.03429
    Cl(r) = 0.103992

forceCoeffs canard_4 write:
    Cm    = 0.76607
    Cd    = 0.151362
    Cl    = 1.13828
    Cl(f) = 1.33521
    Cl(r) = -0.196931

forceCoeffs canard_5 write:
    Cm    = 1.06699
    Cd    = 0.151362
    Cl    = 1.13828
    Cl(f) = 1.63613
    Cl(r) = -0.497854

forceCoeffs canard_6 write:
    Cm    = 1.36792
    Cd    = 0.151362
    Cl    = 1.13828
    Cl(f) = 1.93706
    Cl(r) = -0.798777

forceCoeffs canard_7 write:
    Cm    = 1.66884
    Cd    = 0.151362
    Cl    = 1.13828
    Cl(f) = 2.23798
    Cl(r) = -1.0997

forceCoeffs canard_8 write:
    Cm    = 1.96976
    Cd    = 0.151362
    Cl    = 1.13828
    Cl(f) = 2.5389
    Cl(r) = -1.40062

forceCoeffs canard_9 write:
    Cm    = 2.27068
    Cd    = 0.151362
    Cl    = 1.13828
    Cl(f) = 2.83982
    Cl(r) = -1.70155

forceCoeffs canard_10 write:
    Cm    = 2.57161
    Cd    = 0.151362
    Cl    = 1.13828
    Cl(f) = 3.14075
    Cl(r) = -2.00247

forceCoeffs canard_11 write:
    Cm    = 2.87253
    Cd    = 0.151362
    Cl    = 1.13828
    Cl(f) = 3.44167
    Cl(r) = -2.30339

Time = 33s

smoothSolver:  Solving for Ux, Initial residual = 0.00369918, Final residual = 0.000185776, No Iterations 4
smoothSolver:  Solving for Uy, Initial residual = 0.00291946, Final residual = 0.000156222, No Iterations 4
smoothSolver:  Solving for Uz, Initial residual = 0.0190455, Final residual = 0.000938722, No Iterations 4
GAMG:  Solving for p, Initial residual = 0.0199961, Final residual = 0.0017648, No Iterations 2
time step continuity errors : sum local = 0.000206562, global = -1.46311e-05, cumulative = 0.000103298
smoothSolver:  Solving for nuTilda, Initial residual = 0.0122713, Final residual = 0.0010972, No Iterations 2
bounding nuTilda, min: -0.00774044 max: 0.0707649 average: 0.0140853
ExecutionTime = 350.519 s  ClockTime = 351 s

forceCoeffs canard_1 write:
    Cm    = -0.130062
    Cd    = 0.144191
    Cl    = 1.13458
    Cl(f) = 0.437226
    Cl(r) = 0.697349

forceCoeffs canard_2 write:
    Cm    = 0.169578
    Cd    = 0.144191
    Cl    = 1.13458
    Cl(f) = 0.736866
    Cl(r) = 0.397709

forceCoeffs canard_3 write:
    Cm    = 0.469218
    Cd    = 0.144191
    Cl    = 1.13458
    Cl(f) = 1.03651
    Cl(r) = 0.0980695

forceCoeffs canard_4 write:
    Cm    = 0.768858
    Cd    = 0.144191
    Cl    = 1.13458
    Cl(f) = 1.33615
    Cl(r) = -0.20157

forceCoeffs canard_5 write:
    Cm    = 1.0685
    Cd    = 0.144191
    Cl    = 1.13458
    Cl(f) = 1.63579
    Cl(r) = -0.50121

forceCoeffs canard_6 write:
    Cm    = 1.36814
    Cd    = 0.144191
    Cl    = 1.13458
    Cl(f) = 1.93543
    Cl(r) = -0.80085

forceCoeffs canard_7 write:
    Cm    = 1.66778
    Cd    = 0.144191
    Cl    = 1.13458
    Cl(f) = 2.23507
    Cl(r) = -1.10049

forceCoeffs canard_8 write:
    Cm    = 1.96742
    Cd    = 0.144191
    Cl    = 1.13458
    Cl(f) = 2.53471
    Cl(r) = -1.40013

forceCoeffs canard_9 write:
    Cm    = 2.26706
    Cd    = 0.144191
    Cl    = 1.13458
    Cl(f) = 2.83435
    Cl(r) = -1.69977

forceCoeffs canard_10 write:
    Cm    = 2.5667
    Cd    = 0.144191
    Cl    = 1.13458
    Cl(f) = 3.13399
    Cl(r) = -1.99941

forceCoeffs canard_11 write:
    Cm    = 2.86634
    Cd    = 0.144191
    Cl    = 1.13458
    Cl(f) = 3.43363
    Cl(r) = -2.29905

Time = 34s

smoothSolver:  Solving for Ux, Initial residual = 0.00354905, Final residual = 0.000182637, No Iterations 4
smoothSolver:  Solving for Uy, Initial residual = 0.00294543, Final residual = 0.000158324, No Iterations 4
smoothSolver:  Solving for Uz, Initial residual = 0.0183285, Final residual = 0.000911063, No Iterations 4
GAMG:  Solving for p, Initial residual = 0.019356, Final residual = 0.0015651, No Iterations 2
time step continuity errors : sum local = 0.000180927, global = -4.54096e-06, cumulative = 9.87573e-05
smoothSolver:  Solving for nuTilda, Initial residual = 0.0132054, Final residual = 0.000181202, No Iterations 2
bounding nuTilda, min: -0.00769525 max: 0.0707649 average: 0.0140636
ExecutionTime = 359.899 s  ClockTime = 360 s

forceCoeffs canard_1 write:
    Cm    = -0.12376
    Cd    = 0.137262
    Cl    = 1.12336
    Cl(f) = 0.437918
    Cl(r) = 0.685438

forceCoeffs canard_2 write:
    Cm    = 0.172666
    Cd    = 0.137262
    Cl    = 1.12336
    Cl(f) = 0.734345
    Cl(r) = 0.389012

forceCoeffs canard_3 write:
    Cm    = 0.469093
    Cd    = 0.137262
    Cl    = 1.12336
    Cl(f) = 1.03077
    Cl(r) = 0.0925854

forceCoeffs canard_4 write:
    Cm    = 0.765519
    Cd    = 0.137262
    Cl    = 1.12336
    Cl(f) = 1.3272
    Cl(r) = -0.203841

forceCoeffs canard_5 write:
    Cm    = 1.06195
    Cd    = 0.137262
    Cl    = 1.12336
    Cl(f) = 1.62362
    Cl(r) = -0.500267

forceCoeffs canard_6 write:
    Cm    = 1.35837
    Cd    = 0.137262
    Cl    = 1.12336
    Cl(f) = 1.92005
    Cl(r) = -0.796694

forceCoeffs canard_7 write:
    Cm    = 1.6548
    Cd    = 0.137262
    Cl    = 1.12336
    Cl(f) = 2.21648
    Cl(r) = -1.09312

[...]

Time = 492s

smoothSolver:  Solving for Ux, Initial residual = 1.91337e-05, Final residual = 4.45898e-07, No Iterations 4
smoothSolver:  Solving for Uy, Initial residual = 1.17813e-06, Final residual = 2.21271e-08, No Iterations 4
smoothSolver:  Solving for Uz, Initial residual = 6.02329e-06, Final residual = 4.54737e-07, No Iterations 2
GAMG:  Solving for p, Initial residual = 4.7912e-05, Final residual = 1.53664e-06, No Iterations 2
time step continuity errors : sum local = 2.42938e-07, global = 6.52824e-08, cumulative = 0.000136763
smoothSolver:  Solving for nuTilda, Initial residual = 0.010685, Final residual = 0.000857834, No Iterations 2
bounding nuTilda, min: -0.00599239 max: 0.0842824 average: 0.0130159
ExecutionTime = 4936.76 s  ClockTime = 4944 s

forceCoeffs canard_1 write:
    Cm    = -0.152455
    Cd    = 0.141055
    Cl    = 1.40732
    Cl(f) = 0.551205
    Cl(r) = 0.856114

forceCoeffs canard_2 write:
    Cm    = 0.217495
    Cd    = 0.141055
    Cl    = 1.40732
    Cl(f) = 0.921155
    Cl(r) = 0.486165

forceCoeffs canard_3 write:
    Cm    = 0.587445
    Cd    = 0.141055
    Cl    = 1.40732
    Cl(f) = 1.2911
    Cl(r) = 0.116215

forceCoeffs canard_4 write:
    Cm    = 0.957394
    Cd    = 0.141055
    Cl    = 1.40732
    Cl(f) = 1.66105
    Cl(r) = -0.253735

forceCoeffs canard_5 write:
    Cm    = 1.32734
    Cd    = 0.141055
    Cl    = 1.40732
    Cl(f) = 2.031
    Cl(r) = -0.623684

forceCoeffs canard_6 write:
    Cm    = 1.69729
    Cd    = 0.141055
    Cl    = 1.40732
    Cl(f) = 2.40095
    Cl(r) = -0.993634

forceCoeffs canard_7 write:
    Cm    = 2.06724
    Cd    = 0.141055
    Cl    = 1.40732
    Cl(f) = 2.7709
    Cl(r) = -1.36358

forceCoeffs canard_8 write:
    Cm    = 2.43719
    Cd    = 0.141055
    Cl    = 1.40732
    Cl(f) = 3.14085
    Cl(r) = -1.73353

forceCoeffs canard_9 write:
    Cm    = 2.80714
    Cd    = 0.141055
    Cl    = 1.40732
    Cl(f) = 3.5108
    Cl(r) = -2.10348

forceCoeffs canard_10 write:
    Cm    = 3.17709
    Cd    = 0.141055
    Cl    = 1.40732
    Cl(f) = 3.88075
    Cl(r) = -2.47343

forceCoeffs canard_11 write:
    Cm    = 3.54704
    Cd    = 0.141055
    Cl    = 1.40732
    Cl(f) = 4.2507
    Cl(r) = -2.84338

Time = 493s

smoothSolver:  Solving for Ux, Initial residual = 2.07821e-05, Final residual = 4.62319e-07, No Iterations 4
smoothSolver:  Solving for Uy, Initial residual = 1.10214e-06, Final residual = 2.13195e-08, No Iterations 4
smoothSolver:  Solving for Uz, Initial residual = 5.87373e-06, Final residual = 4.3693e-07, No Iterations 2
GAMG:  Solving for p, Initial residual = 4.85203e-05, Final residual = 2.1973e-06, No Iterations 2
time step continuity errors : sum local = 3.47397e-07, global = 5.30319e-08, cumulative = 0.000136816
smoothSolver:  Solving for nuTilda, Initial residual = 0.0109254, Final residual = 5.50691e-05, No Iterations 2
bounding nuTilda, min: -0.00680728 max: 0.0842826 average: 0.0130158
ExecutionTime = 4946.2 s  ClockTime = 4953 s

forceCoeffs canard_1 write:
    Cm    = -0.152455
    Cd    = 0.141056
    Cl    = 1.40732
    Cl(f) = 0.551207
    Cl(r) = 0.856116

forceCoeffs canard_2 write:
    Cm    = 0.217496
    Cd    = 0.141056
    Cl    = 1.40732
    Cl(f) = 0.921157
    Cl(r) = 0.486166

forceCoeffs canard_3 write:
    Cm    = 0.587446
    Cd    = 0.141056
    Cl    = 1.40732
    Cl(f) = 1.29111
    Cl(r) = 0.116215

forceCoeffs canard_4 write:
    Cm    = 0.957397
    Cd    = 0.141056
    Cl    = 1.40732
    Cl(f) = 1.66106
    Cl(r) = -0.253735

forceCoeffs canard_5 write:
    Cm    = 1.32735
    Cd    = 0.141056
    Cl    = 1.40732
    Cl(f) = 2.03101
    Cl(r) = -0.623686

forceCoeffs canard_6 write:
    Cm    = 1.6973
    Cd    = 0.141056
    Cl    = 1.40732
    Cl(f) = 2.40096
    Cl(r) = -0.993637

forceCoeffs canard_7 write:
    Cm    = 2.06725
    Cd    = 0.141056
    Cl    = 1.40732
    Cl(f) = 2.77091
    Cl(r) = -1.36359

forceCoeffs canard_8 write:
    Cm    = 2.4372
    Cd    = 0.141056
    Cl    = 1.40732
    Cl(f) = 3.14086
    Cl(r) = -1.73354

forceCoeffs canard_9 write:
    Cm    = 2.80715
    Cd    = 0.141056
    Cl    = 1.40732
    Cl(f) = 3.51081
    Cl(r) = -2.10349

forceCoeffs canard_10 write:
    Cm    = 3.1771
    Cd    = 0.141056
    Cl    = 1.40732
    Cl(f) = 3.88076
    Cl(r) = -2.47344

forceCoeffs canard_11 write:
    Cm    = 3.54705
    Cd    = 0.141056
    Cl    = 1.40732
    Cl(f) = 4.25071
    Cl(r) = -2.84339

Time = 494s

smoothSolver:  Solving for Ux, Initial residual = 2.2768e-05, Final residual = 4.84512e-07, No Iterations 4
smoothSolver:  Solving for Uy, Initial residual = 1.47138e-06, Final residual = 1.35724e-07, No Iterations 2
smoothSolver:  Solving for Uz, Initial residual = 5.77237e-06, Final residual = 4.24492e-07, No Iterations 2
GAMG:  Solving for p, Initial residual = 5.00993e-05, Final residual = 1.87368e-06, No Iterations 2
time step continuity errors : sum local = 2.96246e-07, global = 2.05941e-08, cumulative = 0.000136837
smoothSolver:  Solving for nuTilda, Initial residual = 0.0108403, Final residual = 0.000355577, No Iterations 2
bounding nuTilda, min: -0.00711034 max: 0.0842828 average: 0.0130158
ExecutionTime = 4955.51 s  ClockTime = 4963 s

forceCoeffs canard_1 write:
    Cm    = -0.152455
    Cd    = 0.141056
    Cl    = 1.40733
    Cl(f) = 0.551208
    Cl(r) = 0.856118

forceCoeffs canard_2 write:
    Cm    = 0.217496
    Cd    = 0.141056
    Cl    = 1.40733
    Cl(f) = 0.921159
    Cl(r) = 0.486166

forceCoeffs canard_3 write:
    Cm    = 0.587447
    Cd    = 0.141056
    Cl    = 1.40733
    Cl(f) = 1.29111
    Cl(r) = 0.116215

forceCoeffs canard_4 write:
    Cm    = 0.957399
    Cd    = 0.141056
    Cl    = 1.40733
    Cl(f) = 1.66106
    Cl(r) = -0.253736

forceCoeffs canard_5 write:
    Cm    = 1.32735
    Cd    = 0.141056
    Cl    = 1.40733
    Cl(f) = 2.03101
    Cl(r) = -0.623687

forceCoeffs canard_6 write:
    Cm    = 1.6973
    Cd    = 0.141056
    Cl    = 1.40733
    Cl(f) = 2.40096
    Cl(r) = -0.993638

forceCoeffs canard_7 write:
    Cm    = 2.06725
    Cd    = 0.141056
    Cl    = 1.40733
    Cl(f) = 2.77091
    Cl(r) = -1.36359

forceCoeffs canard_8 write:
    Cm    = 2.4372
    Cd    = 0.141056
    Cl    = 1.40733
    Cl(f) = 3.14087
    Cl(r) = -1.73354

forceCoeffs canard_9 write:
    Cm    = 2.80715
    Cd    = 0.141056
    Cl    = 1.40733
    Cl(f) = 3.51082
    Cl(r) = -2.10349

forceCoeffs canard_10 write:
    Cm    = 3.17711
    Cd    = 0.141056
    Cl    = 1.40733
    Cl(f) = 3.88077
    Cl(r) = -2.47344

forceCoeffs canard_11 write:
    Cm    = 3.54706
    Cd    = 0.141056
    Cl    = 1.40733
    Cl(f) = 4.25072
    Cl(r) = -2.84339

Time = 495s

smoothSolver:  Solving for Ux, Initial residual = 2.09736e-05, Final residual = 4.74248e-07, No Iterations 4
smoothSolver:  Solving for Uy, Initial residual = 1.52595e-06, Final residual = 2.60383e-08, No Iterations 4
smoothSolver:  Solving for Uz, Initial residual = 5.61756e-06, Final residual = 4.49635e-07, No Iterations 2
GAMG:  Solving for p, Initial residual = 4.91273e-05, Final residual = 2.20195e-06, No Iterations 2
time step continuity errors : sum local = 3.48149e-07, global = -4.37267e-08, cumulative = 0.000136793
smoothSolver:  Solving for nuTilda, Initial residual = 0.00987052, Final residual = 0.000801516, No Iterations 2
bounding nuTilda, min: -0.00600324 max: 0.084283 average: 0.0130159
ExecutionTime = 4964.67 s  ClockTime = 4972 s

forceCoeffs canard_1 write:
    Cm    = -0.152455
    Cd    = 0.141056
    Cl    = 1.40733
    Cl(f) = 0.551209
    Cl(r) = 0.856118

forceCoeffs canard_2 write:
    Cm    = 0.217497
    Cd    = 0.141056
    Cl    = 1.40733
    Cl(f) = 0.92116
    Cl(r) = 0.486167

forceCoeffs canard_3 write:
    Cm    = 0.587448
    Cd    = 0.141056
    Cl    = 1.40733
    Cl(f) = 1.29111
    Cl(r) = 0.116215

forceCoeffs canard_4 write:
    Cm    = 0.9574
    Cd    = 0.141056
    Cl    = 1.40733
    Cl(f) = 1.66106
    Cl(r) = -0.253737

forceCoeffs canard_5 write:
    Cm    = 1.32735
    Cd    = 0.141056
    Cl    = 1.40733
    Cl(f) = 2.03101
    Cl(r) = -0.623688

forceCoeffs canard_6 write:
    Cm    = 1.6973
    Cd    = 0.141056
    Cl    = 1.40733
    Cl(f) = 2.40097
    Cl(r) = -0.99364

forceCoeffs canard_7 write:
    Cm    = 2.06725
    Cd    = 0.141056
    Cl    = 1.40733
    Cl(f) = 2.77092
    Cl(r) = -1.36359

forceCoeffs canard_8 write:
    Cm    = 2.43721
    Cd    = 0.141056
    Cl    = 1.40733
    Cl(f) = 3.14087
    Cl(r) = -1.73354

forceCoeffs canard_9 write:
    Cm    = 2.80716
    Cd    = 0.141056
    Cl    = 1.40733
    Cl(f) = 3.51082
    Cl(r) = -2.10349

forceCoeffs canard_10 write:
    Cm    = 3.17711
    Cd    = 0.141056
    Cl    = 1.40733
    Cl(f) = 3.88077
    Cl(r) = -2.47345

forceCoeffs canard_11 write:
    Cm    = 3.54706
    Cd    = 0.141056
    Cl    = 1.40733
    Cl(f) = 4.25072
    Cl(r) = -2.8434

Time = 496s

smoothSolver:  Solving for Ux, Initial residual = 1.93606e-05, Final residual = 4.5924e-07, No Iterations 4
smoothSolver:  Solving for Uy, Initial residual = 1.65598e-06, Final residual = 2.89508e-08, No Iterations 4
smoothSolver:  Solving for Uz, Initial residual = 5.90944e-06, Final residual = 3.90981e-07, No Iterations 2
GAMG:  Solving for p, Initial residual = 4.97657e-05, Final residual = 2.80942e-06, No Iterations 2
time step continuity errors : sum local = 4.44197e-07, global = -1.05376e-07, cumulative = 0.000136688
smoothSolver:  Solving for nuTilda, Initial residual = 0.0120021, Final residual = 6.50022e-05, No Iterations 2
bounding nuTilda, min: -0.00682808 max: 0.0842832 average: 0.0130158
ExecutionTime = 4973.81 s  ClockTime = 4981 s

forceCoeffs canard_1 write:
    Cm    = -0.152455
    Cd    = 0.141056
    Cl    = 1.40733
    Cl(f) = 0.55121
    Cl(r) = 0.85612

forceCoeffs canard_2 write:
    Cm    = 0.217497
    Cd    = 0.141056
    Cl    = 1.40733
    Cl(f) = 0.921162
    Cl(r) = 0.486167

forceCoeffs canard_3 write:
    Cm    = 0.58745
    Cd    = 0.141056
    Cl    = 1.40733
    Cl(f) = 1.29111
    Cl(r) = 0.116215

forceCoeffs canard_4 write:
    Cm    = 0.957402
    Cd    = 0.141056
    Cl    = 1.40733
    Cl(f) = 1.66107
    Cl(r) = -0.253737

forceCoeffs canard_5 write:
    Cm    = 1.32735
    Cd    = 0.141056
    Cl    = 1.40733
    Cl(f) = 2.03102
    Cl(r) = -0.62369

forceCoeffs canard_6 write:
    Cm    = 1.69731
    Cd    = 0.141056
    Cl    = 1.40733
    Cl(f) = 2.40097
    Cl(r) = -0.993642

forceCoeffs canard_7 write:
    Cm    = 2.06726
    Cd    = 0.141056
    Cl    = 1.40733
    Cl(f) = 2.77092
    Cl(r) = -1.36359

forceCoeffs canard_8 write:
    Cm    = 2.43721
    Cd    = 0.141056
    Cl    = 1.40733
    Cl(f) = 3.14088
    Cl(r) = -1.73355

forceCoeffs canard_9 write:
    Cm    = 2.80716
    Cd    = 0.141056
    Cl    = 1.40733
    Cl(f) = 3.51083
    Cl(r) = -2.1035

forceCoeffs canard_10 write:
    Cm    = 3.17712
    Cd    = 0.141056
    Cl    = 1.40733
    Cl(f) = 3.88078
    Cl(r) = -2.47345

forceCoeffs canard_11 write:
    Cm    = 3.54707
    Cd    = 0.141056
    Cl    = 1.40733
    Cl(f) = 4.25073
    Cl(r) = -2.8434

Time = 497s

smoothSolver:  Solving for Ux, Initial residual = 1.6132e-05, Final residual = 4.25181e-07, No Iterations 4
smoothSolver:  Solving for Uy, Initial residual = 1.42064e-06, Final residual = 2.86405e-08, No Iterations 4
smoothSolver:  Solving for Uz, Initial residual = 5.8908e-06, Final residual = 4.0819e-07, No Iterations 2
GAMG:  Solving for p, Initial residual = 5.05667e-05, Final residual = 1.72715e-06, No Iterations 2
time step continuity errors : sum local = 2.73072e-07, global = -6.64124e-08, cumulative = 0.000136621
smoothSolver:  Solving for nuTilda, Initial residual = 0.0106476, Final residual = 0.000357475, No Iterations 2
bounding nuTilda, min: -0.00752549 max: 0.0842834 average: 0.0130158
ExecutionTime = 4983.36 s  ClockTime = 4991 s

forceCoeffs canard_1 write:
    Cm    = -0.152455
    Cd    = 0.141056
    Cl    = 1.40733
    Cl(f) = 0.551211
    Cl(r) = 0.85612

forceCoeffs canard_2 write:
    Cm    = 0.217498
    Cd    = 0.141056
    Cl    = 1.40733
    Cl(f) = 0.921164
    Cl(r) = 0.486168

forceCoeffs canard_3 write:
    Cm    = 0.587451
    Cd    = 0.141056
    Cl    = 1.40733
    Cl(f) = 1.29112
    Cl(r) = 0.116215

forceCoeffs canard_4 write:
    Cm    = 0.957404
    Cd    = 0.141056
    Cl    = 1.40733
    Cl(f) = 1.66107
    Cl(r) = -0.253738

forceCoeffs canard_5 write:
    Cm    = 1.32736
    Cd    = 0.141056
    Cl    = 1.40733
    Cl(f) = 2.03102
    Cl(r) = -0.623691

forceCoeffs canard_6 write:
    Cm    = 1.69731
    Cd    = 0.141056
    Cl    = 1.40733
    Cl(f) = 2.40097
    Cl(r) = -0.993643

forceCoeffs canard_7 write:
    Cm    = 2.06726
    Cd    = 0.141056
    Cl    = 1.40733
    Cl(f) = 2.77093
    Cl(r) = -1.3636

forceCoeffs canard_8 write:
    Cm    = 2.43721
    Cd    = 0.141056
    Cl    = 1.40733
    Cl(f) = 3.14088
    Cl(r) = -1.73355

forceCoeffs canard_9 write:
    Cm    = 2.80717
    Cd    = 0.141056
    Cl    = 1.40733
    Cl(f) = 3.51083
    Cl(r) = -2.1035

forceCoeffs canard_10 write:
    Cm    = 3.17712
    Cd    = 0.141056
    Cl    = 1.40733
    Cl(f) = 3.88079
    Cl(r) = -2.47345

forceCoeffs canard_11 write:
    Cm    = 3.54707
    Cd    = 0.141056
    Cl    = 1.40733
    Cl(f) = 4.25074
    Cl(r) = -2.84341

Time = 498s

smoothSolver:  Solving for Ux, Initial residual = 1.56102e-05, Final residual = 4.24158e-07, No Iterations 4
smoothSolver:  Solving for Uy, Initial residual = 1.4034e-06, Final residual = 2.84953e-08, No Iterations 4
smoothSolver:  Solving for Uz, Initial residual = 5.85492e-06, Final residual = 4.89392e-07, No Iterations 2
GAMG:  Solving for p, Initial residual = 5.23741e-05, Final residual = 2.66218e-06, No Iterations 2
time step continuity errors : sum local = 4.20908e-07, global = -4.20508e-08, cumulative = 0.000136579
smoothSolver:  Solving for nuTilda, Initial residual = 0.0103404, Final residual = 0.000812597, No Iterations 2
bounding nuTilda, min: -0.0103062 max: 0.0842836 average: 0.013016
ExecutionTime = 4992.75 s  ClockTime = 5000 s

forceCoeffs canard_1 write:
    Cm    = -0.152455
    Cd    = 0.141056
    Cl    = 1.40734
    Cl(f) = 0.551213
    Cl(r) = 0.856123

forceCoeffs canard_2 write:
    Cm    = 0.217499
    Cd    = 0.141056
    Cl    = 1.40734
    Cl(f) = 0.921167
    Cl(r) = 0.486169

forceCoeffs canard_3 write:
    Cm    = 0.587453
    Cd    = 0.141056
    Cl    = 1.40734
    Cl(f) = 1.29112
    Cl(r) = 0.116215

forceCoeffs canard_4 write:
    Cm    = 0.957407
    Cd    = 0.141056
    Cl    = 1.40734
    Cl(f) = 1.66107
    Cl(r) = -0.253739

forceCoeffs canard_5 write:
    Cm    = 1.32736
    Cd    = 0.141056
    Cl    = 1.40734
    Cl(f) = 2.03103
    Cl(r) = -0.623693

forceCoeffs canard_6 write:
    Cm    = 1.69731
    Cd    = 0.141056
    Cl    = 1.40734
    Cl(f) = 2.40098
    Cl(r) = -0.993647

forceCoeffs canard_7 write:
    Cm    = 2.06727
    Cd    = 0.141056
    Cl    = 1.40734
    Cl(f) = 2.77094
    Cl(r) = -1.3636

forceCoeffs canard_8 write:
    Cm    = 2.43722
    Cd    = 0.141056
    Cl    = 1.40734
    Cl(f) = 3.14089
    Cl(r) = -1.73355

forceCoeffs canard_9 write:
    Cm    = 2.80718
    Cd    = 0.141056
    Cl    = 1.40734
    Cl(f) = 3.51084
    Cl(r) = -2.10351

forceCoeffs canard_10 write:
    Cm    = 3.17713
    Cd    = 0.141056
    Cl    = 1.40734
    Cl(f) = 3.8808
    Cl(r) = -2.47346

forceCoeffs canard_11 write:
    Cm    = 3.54708
    Cd    = 0.141056
    Cl    = 1.40734
    Cl(f) = 4.25075
    Cl(r) = -2.84342

Time = 499s

smoothSolver:  Solving for Ux, Initial residual = 1.58409e-05, Final residual = 4.10672e-07, No Iterations 4
smoothSolver:  Solving for Uy, Initial residual = 1.19477e-06, Final residual = 2.46482e-08, No Iterations 4
smoothSolver:  Solving for Uz, Initial residual = 5.9286e-06, Final residual = 4.83147e-07, No Iterations 2
GAMG:  Solving for p, Initial residual = 5.09359e-05, Final residual = 5.09274e-06, No Iterations 1
time step continuity errors : sum local = 8.05183e-07, global = 1.00339e-07, cumulative = 0.00013668
smoothSolver:  Solving for nuTilda, Initial residual = 0.0108874, Final residual = 9.90049e-05, No Iterations 2
bounding nuTilda, min: -0.00676286 max: 0.0842837 average: 0.0130158
ExecutionTime = 5001.88 s  ClockTime = 5009 s

forceCoeffs canard_1 write:
    Cm    = -0.152455
    Cd    = 0.141056
    Cl    = 1.40734
    Cl(f) = 0.551213
    Cl(r) = 0.856123

forceCoeffs canard_2 write:
    Cm    = 0.217499
    Cd    = 0.141056
    Cl    = 1.40734
    Cl(f) = 0.921167
    Cl(r) = 0.486169

forceCoeffs canard_3 write:
    Cm    = 0.587453
    Cd    = 0.141056
    Cl    = 1.40734
    Cl(f) = 1.29112
    Cl(r) = 0.116215

forceCoeffs canard_4 write:
    Cm    = 0.957407
    Cd    = 0.141056
    Cl    = 1.40734
    Cl(f) = 1.66108
    Cl(r) = -0.253739

forceCoeffs canard_5 write:
    Cm    = 1.32736
    Cd    = 0.141056
    Cl    = 1.40734
    Cl(f) = 2.03103
    Cl(r) = -0.623693

forceCoeffs canard_6 write:
    Cm    = 1.69732
    Cd    = 0.141056
    Cl    = 1.40734
    Cl(f) = 2.40098
    Cl(r) = -0.993647

forceCoeffs canard_7 write:
    Cm    = 2.06727
    Cd    = 0.141056
    Cl    = 1.40734
    Cl(f) = 2.77094
    Cl(r) = -1.3636

forceCoeffs canard_8 write:
    Cm    = 2.43722
    Cd    = 0.141056
    Cl    = 1.40734
    Cl(f) = 3.14089
    Cl(r) = -1.73356

forceCoeffs canard_9 write:
    Cm    = 2.80718
    Cd    = 0.141056
    Cl    = 1.40734
    Cl(f) = 3.51085
    Cl(r) = -2.10351

forceCoeffs canard_10 write:
    Cm    = 3.17713
    Cd    = 0.141056
    Cl    = 1.40734
    Cl(f) = 3.8808
    Cl(r) = -2.47346

forceCoeffs canard_11 write:
    Cm    = 3.54709
    Cd    = 0.141056
    Cl    = 1.40734
    Cl(f) = 4.25075
    Cl(r) = -2.84342

Time = 500s

smoothSolver:  Solving for Ux, Initial residual = 1.61139e-05, Final residual = 4.22836e-07, No Iterations 4
smoothSolver:  Solving for Uy, Initial residual = 1.08929e-06, Final residual = 2.34117e-08, No Iterations 4
smoothSolver:  Solving for Uz, Initial residual = 5.80911e-06, Final residual = 4.74802e-07, No Iterations 2
GAMG:  Solving for p, Initial residual = 5.09971e-05, Final residual = 2.09438e-06, No Iterations 2
time step continuity errors : sum local = 3.31137e-07, global = 6.30213e-08, cumulative = 0.000136743
smoothSolver:  Solving for nuTilda, Initial residual = 0.0104162, Final residual = 0.000303909, No Iterations 2
bounding nuTilda, min: -0.0087599 max: 0.0842839 average: 0.0130159
ExecutionTime = 5017.45 s  ClockTime = 5025 s

forceCoeffs canard_1 write:
    Cm    = -0.152456
    Cd    = 0.141058
    Cl    = 1.40734
    Cl(f) = 0.551215
    Cl(r) = 0.856127

forceCoeffs canard_2 write:
    Cm    = 0.2175
    Cd    = 0.141058
    Cl    = 1.40734
    Cl(f) = 0.921171
    Cl(r) = 0.486171

forceCoeffs canard_3 write:
    Cm    = 0.587455
    Cd    = 0.141058
    Cl    = 1.40734
    Cl(f) = 1.29113
    Cl(r) = 0.116216

forceCoeffs canard_4 write:
    Cm    = 0.957411
    Cd    = 0.141058
    Cl    = 1.40734
    Cl(f) = 1.66108
    Cl(r) = -0.25374

forceCoeffs canard_5 write:
    Cm    = 1.32737
    Cd    = 0.141058
    Cl    = 1.40734
    Cl(f) = 2.03104
    Cl(r) = -0.623696

forceCoeffs canard_6 write:
    Cm    = 1.69732
    Cd    = 0.141058
    Cl    = 1.40734
    Cl(f) = 2.40099
    Cl(r) = -0.993651

forceCoeffs canard_7 write:
    Cm    = 2.06728
    Cd    = 0.141058
    Cl    = 1.40734
    Cl(f) = 2.77095
    Cl(r) = -1.36361

forceCoeffs canard_8 write:
    Cm    = 2.43723
    Cd    = 0.141058
    Cl    = 1.40734
    Cl(f) = 3.1409
    Cl(r) = -1.73356

forceCoeffs canard_9 write:
    Cm    = 2.80719
    Cd    = 0.141058
    Cl    = 1.40734
    Cl(f) = 3.51086
    Cl(r) = -2.10352

forceCoeffs canard_10 write:
    Cm    = 3.17714
    Cd    = 0.141058
    Cl    = 1.40734
    Cl(f) = 3.88082
    Cl(r) = -2.47347

forceCoeffs canard_11 write:
    Cm    = 3.5471
    Cd    = 0.141058
    Cl    = 1.40734
    Cl(f) = 4.25077
    Cl(r) = -2.84343

End

Finalising parallel run
