
simpleFoam has been superseded and replaced by the more general
incompressibleFluid solver module executed by the foamRun application:

    foamRun -solver incompressibleFluid


simpleFoam has been superseded and replaced by the more general
incompressibleFluid solver module executed by the foamRun application:

    foamRun -solver incompressibleFluid


simpleFoam has been superseded and replaced by the more general
incompressibleFluid solver module executed by the foamRun application:

    foamRun -solver incompressibleFluid

/*---------------------------------------------------------------------------*\
  =========                 |
  \\      /  F ield         | OpenFOAM: The Open Source CFD Toolbox
   \\    /   O peration     | Website:  https://openfoam.org
    \\  /    A nd           | Version:  12
     \\/     M anipulation  |
\*---------------------------------------------------------------------------*/
Build  : 12-86e126a7bc4d
Exec   : foamRun -solver incompressibleFluid -parallel
Date   : Jun 24 2025
Time   : 12:34:42
Host   : "EmiAlamilla"
PID    : 130244
I/O    : uncollated
Case   : /home/emilianoalamilla/CFD/Aircraft/AoA_25
nProcs : 3
Slaves : 
2
(
"EmiAlamilla.130246"
"EmiAlamilla.130248"
)

Pstream initialised with:
    floatTransfer      : false
    nProcsSimpleSum    : 0
    commsType          : nonBlocking
    polling iterations : 0
sigFpe : Enabling floating point exception trapping (FOAM_SIGFPE).
fileModificationChecking : Monitoring run-time modified files using timeStampMaster (fileModificationSkew 10)
allowSystemOperations : Allowing user-supplied system call operations

// * * * * * * * * * * * * * * * * * * * * * * * * * * * * * * * * * * * * * //
Create time

Create mesh for time = 0

Selecting solver incompressibleFluid
Selecting viscosity model constant
Selecting turbulence model type RAS
Selecting RAS turbulence model SpalartAllmaras
RAS
{
    RASModel        SpalartAllmaras;
    turbulence      on;
    printCoeffs     on;
    sigmaNut        0.66666;
    kappa           0.41;
    Cb1             0.1355;
    Cb2             0.622;
    Cw2             0.3;
    Cw3             2;
    Cv1             7.1;
    Cs              0.3;
}

No MRF models present


SIMPLE: Convergence criteria found
        p: tolerance 1e-05
        U: tolerance 1e-05
        nuTilda: tolerance 1e-05


SIMPLE: Operating solver in steady-state mode with 1 outer corrector
SIMPLE: Operating solver in SIMPLE mode



Starting time loop

forcesBase canard_1:
    Not including porosity effects
forces canard_1:
    Not including porosity effects
forceCoeffs canard_1:
    Not including porosity effects
forcesBase canard_2:
    Not including porosity effects
forces canard_2:
    Not including porosity effects
forceCoeffs canard_2:
    Not including porosity effects
forcesBase canard_3:
    Not including porosity effects
forces canard_3:
    Not including porosity effects
forceCoeffs canard_3:
    Not including porosity effects
forcesBase canard_4:
    Not including porosity effects
forces canard_4:
    Not including porosity effects
forceCoeffs canard_4:
    Not including porosity effects
forcesBase canard_5:
    Not including porosity effects
forces canard_5:
    Not including porosity effects
forceCoeffs canard_5:
    Not including porosity effects
forcesBase canard_6:
    Not including porosity effects
forces canard_6:
    Not including porosity effects
forceCoeffs canard_6:
    Not including porosity effects
forcesBase canard_7:
    Not including porosity effects
forces canard_7:
    Not including porosity effects
forceCoeffs canard_7:
    Not including porosity effects
forcesBase canard_8:
    Not including porosity effects
forces canard_8:
    Not including porosity effects
forceCoeffs canard_8:
    Not including porosity effects
forcesBase canard_9:
    Not including porosity effects
forces canard_9:
    Not including porosity effects
forceCoeffs canard_9:
    Not including porosity effects
forcesBase canard_10:
    Not including porosity effects
forces canard_10:
    Not including porosity effects
forceCoeffs canard_10:
    Not including porosity effects
forcesBase canard_11:
    Not including porosity effects
forces canard_11:
    Not including porosity effects
forceCoeffs canard_11:
    Not including porosity effects
forceCoeffs canard_1 write:
    Cm    = -0.00105609
    Cd    = 0.00668522
    Cl    = 0.000576489
    Cl(f) = -0.000767843
    Cl(r) = 0.00134433

forceCoeffs canard_2 write:
    Cm    = -0.000177983
    Cd    = 0.00668522
    Cl    = 0.000576489
    Cl(f) = 0.000110262
    Cl(r) = 0.000466227

forceCoeffs canard_3 write:
    Cm    = 0.000700122
    Cd    = 0.00668522
    Cl    = 0.000576489
    Cl(f) = 0.000988366
    Cl(r) = -0.000411878

forceCoeffs canard_4 write:
    Cm    = 0.00157823
    Cd    = 0.00668522
    Cl    = 0.000576489
    Cl(f) = 0.00186647
    Cl(r) = -0.00128998

forceCoeffs canard_5 write:
    Cm    = 0.00245633
    Cd    = 0.00668522
    Cl    = 0.000576489
    Cl(f) = 0.00274458
    Cl(r) = -0.00216809

forceCoeffs canard_6 write:
    Cm    = 0.00333444
    Cd    = 0.00668522
    Cl    = 0.000576489
    Cl(f) = 0.00362268
    Cl(r) = -0.00304619

forceCoeffs canard_7 write:
    Cm    = 0.00421254
    Cd    = 0.00668522
    Cl    = 0.000576489
    Cl(f) = 0.00450078
    Cl(r) = -0.0039243

forceCoeffs canard_8 write:
    Cm    = 0.00509064
    Cd    = 0.00668522
    Cl    = 0.000576489
    Cl(f) = 0.00537889
    Cl(r) = -0.0048024

forceCoeffs canard_9 write:
    Cm    = 0.00596875
    Cd    = 0.00668522
    Cl    = 0.000576489
    Cl(f) = 0.00625699
    Cl(r) = -0.0056805

forceCoeffs canard_10 write:
    Cm    = 0.00684685
    Cd    = 0.00668522
    Cl    = 0.000576489
    Cl(f) = 0.0071351
    Cl(r) = -0.00655861

forceCoeffs canard_11 write:
    Cm    = 0.00772496
    Cd    = 0.00668522
    Cl    = 0.000576489
    Cl(f) = 0.0080132
    Cl(r) = -0.00743671

Time = 1s

smoothSolver:  Solving for Ux, Initial residual = 1, Final residual = 0.0553989, No Iterations 4
smoothSolver:  Solving for Uy, Initial residual = 1, Final residual = 0.0182471, No Iterations 4
smoothSolver:  Solving for Uz, Initial residual = 1, Final residual = 0.0259284, No Iterations 4
GAMG:  Solving for p, Initial residual = 1, Final residual = 0.0839781, No Iterations 5
time step continuity errors : sum local = 0.000828085, global = -5.65279e-06, cumulative = -5.65279e-06
Selecting patchDistMethod meshWave
smoothSolver:  Solving for nuTilda, Initial residual = 1, Final residual = 0.0240512, No Iterations 2
ExecutionTime = 24.2167 s  ClockTime = 25 s

forceCoeffs canard_1 write:
    Cm    = -10.7286
    Cd    = 13.1369
    Cl    = 21.5614
    Cl(f) = 0.0521203
    Cl(r) = 21.5093

forceCoeffs canard_2 write:
    Cm    = -4.14676
    Cd    = 13.1369
    Cl    = 21.5614
    Cl(f) = 6.63393
    Cl(r) = 14.9275

forceCoeffs canard_3 write:
    Cm    = 2.43505
    Cd    = 13.1369
    Cl    = 21.5614
    Cl(f) = 13.2157
    Cl(r) = 8.34565

forceCoeffs canard_4 write:
    Cm    = 9.01686
    Cd    = 13.1369
    Cl    = 21.5614
    Cl(f) = 19.7975
    Cl(r) = 1.76384

forceCoeffs canard_5 write:
    Cm    = 15.5987
    Cd    = 13.1369
    Cl    = 21.5614
    Cl(f) = 26.3794
    Cl(r) = -4.81797

forceCoeffs canard_6 write:
    Cm    = 22.1805
    Cd    = 13.1369
    Cl    = 21.5614
    Cl(f) = 32.9612
    Cl(r) = -11.3998

forceCoeffs canard_7 write:
    Cm    = 28.7623
    Cd    = 13.1369
    Cl    = 21.5614
    Cl(f) = 39.543
    Cl(r) = -17.9816

forceCoeffs canard_8 write:
    Cm    = 35.3441
    Cd    = 13.1369
    Cl    = 21.5614
    Cl(f) = 46.1248
    Cl(r) = -24.5634

forceCoeffs canard_9 write:
    Cm    = 41.9259
    Cd    = 13.1369
    Cl    = 21.5614
    Cl(f) = 52.7066
    Cl(r) = -31.1452

forceCoeffs canard_10 write:
    Cm    = 48.5077
    Cd    = 13.1369
    Cl    = 21.5614
    Cl(f) = 59.2884
    Cl(r) = -37.727

forceCoeffs canard_11 write:
    Cm    = 55.0895
    Cd    = 13.1369
    Cl    = 21.5614
    Cl(f) = 65.8702
    Cl(r) = -44.3088

Time = 2s

smoothSolver:  Solving for Ux, Initial residual = 0.202825, Final residual = 0.0136492, No Iterations 4
smoothSolver:  Solving for Uy, Initial residual = 0.0747838, Final residual = 0.00533734, No Iterations 4
smoothSolver:  Solving for Uz, Initial residual = 0.628185, Final residual = 0.0421675, No Iterations 4
GAMG:  Solving for p, Initial residual = 0.224474, Final residual = 0.0111536, No Iterations 3
time step continuity errors : sum local = 0.00146037, global = -2.76284e-06, cumulative = -8.41563e-06
smoothSolver:  Solving for nuTilda, Initial residual = 0.123006, Final residual = 0.00473382, No Iterations 2
ExecutionTime = 34.7853 s  ClockTime = 39 s

forceCoeffs canard_1 write:
    Cm    = -6.82432
    Cd    = 8.30007
    Cl    = 14.2382
    Cl(f) = 0.294782
    Cl(r) = 13.9434

forceCoeffs canard_2 write:
    Cm    = -2.51954
    Cd    = 8.30007
    Cl    = 14.2382
    Cl(f) = 4.59956
    Cl(r) = 9.63865

forceCoeffs canard_3 write:
    Cm    = 1.78523
    Cd    = 8.30007
    Cl    = 14.2382
    Cl(f) = 8.90434
    Cl(r) = 5.33387

forceCoeffs canard_4 write:
    Cm    = 6.09001
    Cd    = 8.30007
    Cl    = 14.2382
    Cl(f) = 13.2091
    Cl(r) = 1.02909

forceCoeffs canard_5 write:
    Cm    = 10.3948
    Cd    = 8.30007
    Cl    = 14.2382
    Cl(f) = 17.5139
    Cl(r) = -3.27568

forceCoeffs canard_6 write:
    Cm    = 14.6996
    Cd    = 8.30007
    Cl    = 14.2382
    Cl(f) = 21.8187
    Cl(r) = -7.58046

forceCoeffs canard_7 write:
    Cm    = 19.0043
    Cd    = 8.30007
    Cl    = 14.2382
    Cl(f) = 26.1234
    Cl(r) = -11.8852

forceCoeffs canard_8 write:
    Cm    = 23.3091
    Cd    = 8.30007
    Cl    = 14.2382
    Cl(f) = 30.4282
    Cl(r) = -16.19

forceCoeffs canard_9 write:
    Cm    = 27.6139
    Cd    = 8.30007
    Cl    = 14.2382
    Cl(f) = 34.733
    Cl(r) = -20.4948

forceCoeffs canard_10 write:
    Cm    = 31.9187
    Cd    = 8.30007
    Cl    = 14.2382
    Cl(f) = 39.0378
    Cl(r) = -24.7996

forceCoeffs canard_11 write:
    Cm    = 36.2234
    Cd    = 8.30007
    Cl    = 14.2382
    Cl(f) = 43.3425
    Cl(r) = -29.1043

Time = 3s

smoothSolver:  Solving for Ux, Initial residual = 0.0421757, Final residual = 0.00282728, No Iterations 4
smoothSolver:  Solving for Uy, Initial residual = 0.0103575, Final residual = 0.000733774, No Iterations 4
smoothSolver:  Solving for Uz, Initial residual = 0.2706, Final residual = 0.0179261, No Iterations 4
GAMG:  Solving for p, Initial residual = 0.381039, Final residual = 0.0280593, No Iterations 3
time step continuity errors : sum local = 0.00349607, global = 3.3927e-05, cumulative = 2.55114e-05
smoothSolver:  Solving for nuTilda, Initial residual = 0.0735278, Final residual = 0.00303544, No Iterations 2
bounding nuTilda, min: -0.00135313 max: 0.0638575 average: 0.0191981
ExecutionTime = 44.8412 s  ClockTime = 50 s

forceCoeffs canard_1 write:
    Cm    = 1.20735
    Cd    = -1.20648
    Cl    = -0.956965
    Cl(f) = 0.72887
    Cl(r) = -1.68583

forceCoeffs canard_2 write:
    Cm    = 0.846123
    Cd    = -1.20648
    Cl    = -0.956965
    Cl(f) = 0.36764
    Cl(r) = -1.32461

forceCoeffs canard_3 write:
    Cm    = 0.484894
    Cd    = -1.20648
    Cl    = -0.956965
    Cl(f) = 0.00641135
    Cl(r) = -0.963376

forceCoeffs canard_4 write:
    Cm    = 0.123665
    Cd    = -1.20648
    Cl    = -0.956965
    Cl(f) = -0.354818
    Cl(r) = -0.602147

forceCoeffs canard_5 write:
    Cm    = -0.237564
    Cd    = -1.20648
    Cl    = -0.956965
    Cl(f) = -0.716047
    Cl(r) = -0.240918

forceCoeffs canard_6 write:
    Cm    = -0.598793
    Cd    = -1.20648
    Cl    = -0.956965
    Cl(f) = -1.07728
    Cl(r) = 0.120311

forceCoeffs canard_7 write:
    Cm    = -0.960023
    Cd    = -1.20648
    Cl    = -0.956965
    Cl(f) = -1.4385
    Cl(r) = 0.48154

forceCoeffs canard_8 write:
    Cm    = -1.32125
    Cd    = -1.20648
    Cl    = -0.956965
    Cl(f) = -1.79973
    Cl(r) = 0.842769

forceCoeffs canard_9 write:
    Cm    = -1.68248
    Cd    = -1.20648
    Cl    = -0.956965
    Cl(f) = -2.16096
    Cl(r) = 1.204

forceCoeffs canard_10 write:
    Cm    = -2.04371
    Cd    = -1.20648
    Cl    = -0.956965
    Cl(f) = -2.52219
    Cl(r) = 1.56523

forceCoeffs canard_11 write:
    Cm    = -2.40494
    Cd    = -1.20648
    Cl    = -0.956965
    Cl(f) = -2.88342
    Cl(r) = 1.92646

Time = 4s

smoothSolver:  Solving for Ux, Initial residual = 0.0144265, Final residual = 0.000813391, No Iterations 4
smoothSolver:  Solving for Uy, Initial residual = 0.00303997, Final residual = 0.000187562, No Iterations 4
smoothSolver:  Solving for Uz, Initial residual = 0.105747, Final residual = 0.00620738, No Iterations 4
GAMG:  Solving for p, Initial residual = 0.177868, Final residual = 0.0125102, No Iterations 3
time step continuity errors : sum local = 0.00227542, global = 3.57526e-05, cumulative = 6.1264e-05
smoothSolver:  Solving for nuTilda, Initial residual = 0.0675039, Final residual = 0.00263431, No Iterations 2
bounding nuTilda, min: -0.000483102 max: 0.0638575 average: 0.0182986
ExecutionTime = 54.9013 s  ClockTime = 60 s

forceCoeffs canard_1 write:
    Cm    = 4.99901
    Cd    = -5.76528
    Cl    = -8.5496
    Cl(f) = 0.724215
    Cl(r) = -9.27381

forceCoeffs canard_2 write:
    Cm    = 2.32752
    Cd    = -5.76528
    Cl    = -8.5496
    Cl(f) = -1.94728
    Cl(r) = -6.60231

forceCoeffs canard_3 write:
    Cm    = -0.343979
    Cd    = -5.76528
    Cl    = -8.5496
    Cl(f) = -4.61878
    Cl(r) = -3.93082

forceCoeffs canard_4 write:
    Cm    = -3.01547
    Cd    = -5.76528
    Cl    = -8.5496
    Cl(f) = -7.29027
    Cl(r) = -1.25932

forceCoeffs canard_5 write:
    Cm    = -5.68697
    Cd    = -5.76528
    Cl    = -8.5496
    Cl(f) = -9.96177
    Cl(r) = 1.41217

forceCoeffs canard_6 write:
    Cm    = -8.35847
    Cd    = -5.76528
    Cl    = -8.5496
    Cl(f) = -12.6333
    Cl(r) = 4.08367

forceCoeffs canard_7 write:
    Cm    = -11.03
    Cd    = -5.76528
    Cl    = -8.5496
    Cl(f) = -15.3048
    Cl(r) = 6.75516

forceCoeffs canard_8 write:
    Cm    = -13.7015
    Cd    = -5.76528
    Cl    = -8.5496
    Cl(f) = -17.9763
    Cl(r) = 9.42666

forceCoeffs canard_9 write:
    Cm    = -16.373
    Cd    = -5.76528
    Cl    = -8.5496
    Cl(f) = -20.6478
    Cl(r) = 12.0982

forceCoeffs canard_10 write:
    Cm    = -19.0444
    Cd    = -5.76528
    Cl    = -8.5496
    Cl(f) = -23.3192
    Cl(r) = 14.7697

forceCoeffs canard_11 write:
    Cm    = -21.7159
    Cd    = -5.76528
    Cl    = -8.5496
    Cl(f) = -25.9907
    Cl(r) = 17.4411

Time = 5s

smoothSolver:  Solving for Ux, Initial residual = 0.0248382, Final residual = 0.00156427, No Iterations 4
smoothSolver:  Solving for Uy, Initial residual = 0.00696987, Final residual = 0.0004807, No Iterations 4
smoothSolver:  Solving for Uz, Initial residual = 0.14613, Final residual = 0.00931606, No Iterations 4
GAMG:  Solving for p, Initial residual = 0.0873519, Final residual = 0.00502269, No Iterations 3
time step continuity errors : sum local = 0.00179964, global = 4.6983e-05, cumulative = 0.000108247
smoothSolver:  Solving for nuTilda, Initial residual = 0.0619106, Final residual = 0.00231538, No Iterations 2
bounding nuTilda, min: -5.10729e-05 max: 0.0638575 average: 0.0176586
ExecutionTime = 64.6429 s  ClockTime = 71 s

forceCoeffs canard_1 write:
    Cm    = 2.88864
    Cd    = -3.42535
    Cl    = -5.12378
    Cl(f) = 0.326748
    Cl(r) = -5.45053

forceCoeffs canard_2 write:
    Cm    = 1.29091
    Cd    = -3.42535
    Cl    = -5.12378
    Cl(f) = -1.27098
    Cl(r) = -3.8528

forceCoeffs canard_3 write:
    Cm    = -0.306818
    Cd    = -3.42535
    Cl    = -5.12378
    Cl(f) = -2.86871
    Cl(r) = -2.25507

forceCoeffs canard_4 write:
    Cm    = -1.90455
    Cd    = -3.42535
    Cl    = -5.12378
    Cl(f) = -4.46644
    Cl(r) = -0.657344

forceCoeffs canard_5 write:
    Cm    = -3.50227
    Cd    = -3.42535
    Cl    = -5.12378
    Cl(f) = -6.06416
    Cl(r) = 0.940384

forceCoeffs canard_6 write:
    Cm    = -5.1
    Cd    = -3.42535
    Cl    = -5.12378
    Cl(f) = -7.66189
    Cl(r) = 2.53811

forceCoeffs canard_7 write:
    Cm    = -6.69773
    Cd    = -3.42535
    Cl    = -5.12378
    Cl(f) = -9.25962
    Cl(r) = 4.13584

forceCoeffs canard_8 write:
    Cm    = -8.29546
    Cd    = -3.42535
    Cl    = -5.12378
    Cl(f) = -10.8573
    Cl(r) = 5.73357

forceCoeffs canard_9 write:
    Cm    = -9.89319
    Cd    = -3.42535
    Cl    = -5.12378
    Cl(f) = -12.4551
    Cl(r) = 7.3313

forceCoeffs canard_10 write:
    Cm    = -11.4909
    Cd    = -3.42535
    Cl    = -5.12378
    Cl(f) = -14.0528
    Cl(r) = 8.92902

forceCoeffs canard_11 write:
    Cm    = -13.0886
    Cd    = -3.42535
    Cl    = -5.12378
    Cl(f) = -15.6505
    Cl(r) = 10.5268

Time = 6s

smoothSolver:  Solving for Ux, Initial residual = 0.0507756, Final residual = 0.00328385, No Iterations 4
smoothSolver:  Solving for Uy, Initial residual = 0.0145882, Final residual = 0.000994106, No Iterations 4
smoothSolver:  Solving for Uz, Initial residual = 0.194549, Final residual = 0.0125926, No Iterations 4
GAMG:  Solving for p, Initial residual = 0.116594, Final residual = 0.00645421, No Iterations 3
time step continuity errors : sum local = 0.0020664, global = 7.17885e-06, cumulative = 0.000115426
smoothSolver:  Solving for nuTilda, Initial residual = 0.0638395, Final residual = 0.00221618, No Iterations 2
ExecutionTime = 74.6832 s  ClockTime = 81 s

forceCoeffs canard_1 write:
    Cm    = -1.22901
    Cd    = 1.30474
    Cl    = 2.3005
    Cl(f) = -0.0787633
    Cl(r) = 2.37926

forceCoeffs canard_2 write:
    Cm    = -0.537507
    Cd    = 1.30474
    Cl    = 2.3005
    Cl(f) = 0.612742
    Cl(r) = 1.68776

forceCoeffs canard_3 write:
    Cm    = 0.153998
    Cd    = 1.30474
    Cl    = 2.3005
    Cl(f) = 1.30425
    Cl(r) = 0.99625

forceCoeffs canard_4 write:
    Cm    = 0.845504
    Cd    = 1.30474
    Cl    = 2.3005
    Cl(f) = 1.99575
    Cl(r) = 0.304745

forceCoeffs canard_5 write:
    Cm    = 1.53701
    Cd    = 1.30474
    Cl    = 2.3005
    Cl(f) = 2.68726
    Cl(r) = -0.38676

forceCoeffs canard_6 write:
    Cm    = 2.22851
    Cd    = 1.30474
    Cl    = 2.3005
    Cl(f) = 3.37876
    Cl(r) = -1.07827

forceCoeffs canard_7 write:
    Cm    = 2.92002
    Cd    = 1.30474
    Cl    = 2.3005
    Cl(f) = 4.07027
    Cl(r) = -1.76977

forceCoeffs canard_8 write:
    Cm    = 3.61152
    Cd    = 1.30474
    Cl    = 2.3005
    Cl(f) = 4.76177
    Cl(r) = -2.46128

forceCoeffs canard_9 write:
    Cm    = 4.30303
    Cd    = 1.30474
    Cl    = 2.3005
    Cl(f) = 5.45328
    Cl(r) = -3.15278

forceCoeffs canard_10 write:
    Cm    = 4.99453
    Cd    = 1.30474
    Cl    = 2.3005
    Cl(f) = 6.14478
    Cl(r) = -3.84429

forceCoeffs canard_11 write:
    Cm    = 5.68604
    Cd    = 1.30474
    Cl    = 2.3005
    Cl(f) = 6.83629
    Cl(r) = -4.53579

Time = 7s

smoothSolver:  Solving for Ux, Initial residual = 0.0423853, Final residual = 0.00227106, No Iterations 4
smoothSolver:  Solving for Uy, Initial residual = 0.0199039, Final residual = 0.00122695, No Iterations 4
smoothSolver:  Solving for Uz, Initial residual = 0.156336, Final residual = 0.00916778, No Iterations 4
GAMG:  Solving for p, Initial residual = 0.222618, Final residual = 0.013265, No Iterations 3
time step continuity errors : sum local = 0.00148155, global = -1.21092e-05, cumulative = 0.000103317
smoothSolver:  Solving for nuTilda, Initial residual = 0.0591023, Final residual = 0.00192289, No Iterations 2
bounding nuTilda, min: -7.96215e-05 max: 0.0638575 average: 0.0167585
ExecutionTime = 84.6258 s  ClockTime = 91 s

forceCoeffs canard_1 write:
    Cm    = -3.21422
    Cd    = 3.69325
    Cl    = 6.34238
    Cl(f) = -0.0430339
    Cl(r) = 6.38541

forceCoeffs canard_2 write:
    Cm    = -1.29711
    Cd    = 3.69325
    Cl    = 6.34238
    Cl(f) = 1.87408
    Cl(r) = 4.4683

forceCoeffs canard_3 write:
    Cm    = 0.619996
    Cd    = 3.69325
    Cl    = 6.34238
    Cl(f) = 3.79118
    Cl(r) = 2.55119

forceCoeffs canard_4 write:
    Cm    = 2.53711
    Cd    = 3.69325
    Cl    = 6.34238
    Cl(f) = 5.70829
    Cl(r) = 0.634083

forceCoeffs canard_5 write:
    Cm    = 4.45422
    Cd    = 3.69325
    Cl    = 6.34238
    Cl(f) = 7.6254
    Cl(r) = -1.28303

forceCoeffs canard_6 write:
    Cm    = 6.37132
    Cd    = 3.69325
    Cl    = 6.34238
    Cl(f) = 9.54251
    Cl(r) = -3.20014

forceCoeffs canard_7 write:
    Cm    = 8.28843
    Cd    = 3.69325
    Cl    = 6.34238
    Cl(f) = 11.4596
    Cl(r) = -5.11725

forceCoeffs canard_8 write:
    Cm    = 10.2055
    Cd    = 3.69325
    Cl    = 6.34238
    Cl(f) = 13.3767
    Cl(r) = -7.03435

forceCoeffs canard_9 write:
    Cm    = 12.1227
    Cd    = 3.69325
    Cl    = 6.34238
    Cl(f) = 15.2938
    Cl(r) = -8.95146

forceCoeffs canard_10 write:
    Cm    = 14.0398
    Cd    = 3.69325
    Cl    = 6.34238
    Cl(f) = 17.211
    Cl(r) = -10.8686

forceCoeffs canard_11 write:
    Cm    = 15.9569
    Cd    = 3.69325
    Cl    = 6.34238
    Cl(f) = 19.1281
    Cl(r) = -12.7857

Time = 8s

smoothSolver:  Solving for Ux, Initial residual = 0.0257636, Final residual = 0.00154087, No Iterations 4
smoothSolver:  Solving for Uy, Initial residual = 0.0100439, Final residual = 0.000671556, No Iterations 4
smoothSolver:  Solving for Uz, Initial residual = 0.142068, Final residual = 0.00821082, No Iterations 4
GAMG:  Solving for p, Initial residual = 0.205356, Final residual = 0.0136164, No Iterations 3
time step continuity errors : sum local = 0.00171143, global = -4.99734e-05, cumulative = 5.33433e-05
smoothSolver:  Solving for nuTilda, Initial residual = 0.0514964, Final residual = 0.00159106, No Iterations 2
bounding nuTilda, min: -0.0161171 max: 0.0638575 average: 0.0164526
ExecutionTime = 95.3338 s  ClockTime = 101 s

forceCoeffs canard_1 write:
    Cm    = -2.18592
    Cd    = 2.59652
    Cl    = 4.89288
    Cl(f) = 0.260521
    Cl(r) = 4.63236

forceCoeffs canard_2 write:
    Cm    = -0.734958
    Cd    = 2.59652
    Cl    = 4.89288
    Cl(f) = 1.71148
    Cl(r) = 3.1814

forceCoeffs canard_3 write:
    Cm    = 0.716004
    Cd    = 2.59652
    Cl    = 4.89288
    Cl(f) = 3.16244
    Cl(r) = 1.73044

forceCoeffs canard_4 write:
    Cm    = 2.16697
    Cd    = 2.59652
    Cl    = 4.89288
    Cl(f) = 4.61341
    Cl(r) = 0.279474

forceCoeffs canard_5 write:
    Cm    = 3.61793
    Cd    = 2.59652
    Cl    = 4.89288
    Cl(f) = 6.06437
    Cl(r) = -1.17149

forceCoeffs canard_6 write:
    Cm    = 5.06889
    Cd    = 2.59652
    Cl    = 4.89288
    Cl(f) = 7.51533
    Cl(r) = -2.62245

forceCoeffs canard_7 write:
    Cm    = 6.51985
    Cd    = 2.59652
    Cl    = 4.89288
    Cl(f) = 8.96629
    Cl(r) = -4.07341

forceCoeffs canard_8 write:
    Cm    = 7.97081
    Cd    = 2.59652
    Cl    = 4.89288
    Cl(f) = 10.4173
    Cl(r) = -5.52437

forceCoeffs canard_9 write:
    Cm    = 9.42177
    Cd    = 2.59652
    Cl    = 4.89288
    Cl(f) = 11.8682
    Cl(r) = -6.97533

forceCoeffs canard_10 write:
    Cm    = 10.8727
    Cd    = 2.59652
    Cl    = 4.89288
    Cl(f) = 13.3192
    Cl(r) = -8.4263

forceCoeffs canard_11 write:
    Cm    = 12.3237
    Cd    = 2.59652
    Cl    = 4.89288
    Cl(f) = 14.7701
    Cl(r) = -9.87726

Time = 9s

smoothSolver:  Solving for Ux, Initial residual = 0.0174298, Final residual = 0.00107786, No Iterations 4
smoothSolver:  Solving for Uy, Initial residual = 0.00460266, Final residual = 0.000301837, No Iterations 4
smoothSolver:  Solving for Uz, Initial residual = 0.132764, Final residual = 0.00805015, No Iterations 4
GAMG:  Solving for p, Initial residual = 0.263234, Final residual = 0.0130634, No Iterations 3
time step continuity errors : sum local = 0.0013841, global = -3.65414e-05, cumulative = 1.68019e-05
smoothSolver:  Solving for nuTilda, Initial residual = 0.0437352, Final residual = 0.00135161, No Iterations 2
bounding nuTilda, min: -0.00210834 max: 0.0638575 average: 0.0162085
ExecutionTime = 106.565 s  ClockTime = 113 s

forceCoeffs canard_1 write:
    Cm    = -0.149082
    Cd    = 0.291962
    Cl    = 1.45337
    Cl(f) = 0.5776
    Cl(r) = 0.875765

forceCoeffs canard_2 write:
    Cm    = 0.228776
    Cd    = 0.291962
    Cl    = 1.45337
    Cl(f) = 0.955459
    Cl(r) = 0.497907

forceCoeffs canard_3 write:
    Cm    = 0.606634
    Cd    = 0.291962
    Cl    = 1.45337
    Cl(f) = 1.33332
    Cl(r) = 0.120048

forceCoeffs canard_4 write:
    Cm    = 0.984493
    Cd    = 0.291962
    Cl    = 1.45337
    Cl(f) = 1.71118
    Cl(r) = -0.25781

forceCoeffs canard_5 write:
    Cm    = 1.36235
    Cd    = 0.291962
    Cl    = 1.45337
    Cl(f) = 2.08903
    Cl(r) = -0.635668

forceCoeffs canard_6 write:
    Cm    = 1.74021
    Cd    = 0.291962
    Cl    = 1.45337
    Cl(f) = 2.46689
    Cl(r) = -1.01353

forceCoeffs canard_7 write:
    Cm    = 2.11807
    Cd    = 0.291962
    Cl    = 1.45337
    Cl(f) = 2.84475
    Cl(r) = -1.39138

forceCoeffs canard_8 write:
    Cm    = 2.49593
    Cd    = 0.291962
    Cl    = 1.45337
    Cl(f) = 3.22261
    Cl(r) = -1.76924

forceCoeffs canard_9 write:
    Cm    = 2.87378
    Cd    = 0.291962
    Cl    = 1.45337
    Cl(f) = 3.60047
    Cl(r) = -2.1471

forceCoeffs canard_10 write:
    Cm    = 3.25164
    Cd    = 0.291962
    Cl    = 1.45337
    Cl(f) = 3.97833
    Cl(r) = -2.52496

forceCoeffs canard_11 write:
    Cm    = 3.6295
    Cd    = 0.291962
    Cl    = 1.45337
    Cl(f) = 4.35618
    Cl(r) = -2.90282

Time = 10s

smoothSolver:  Solving for Ux, Initial residual = 0.0136245, Final residual = 0.000789771, No Iterations 4
smoothSolver:  Solving for Uy, Initial residual = 0.00350489, Final residual = 0.00021099, No Iterations 4
smoothSolver:  Solving for Uz, Initial residual = 0.109982, Final residual = 0.00643449, No Iterations 4
GAMG:  Solving for p, Initial residual = 0.179963, Final residual = 0.00891248, No Iterations 3
time step continuity errors : sum local = 0.000964454, global = -2.38098e-05, cumulative = -7.00793e-06
smoothSolver:  Solving for nuTilda, Initial residual = 0.0394734, Final residual = 0.00132449, No Iterations 2
bounding nuTilda, min: -0.00607435 max: 0.0638575 average: 0.0160054
ExecutionTime = 122.686 s  ClockTime = 131 s

forceCoeffs canard_1 write:
    Cm    = 0.889508
    Cd    = -0.972131
    Cl    = -0.569197
    Cl(f) = 0.604909
    Cl(r) = -1.17411

forceCoeffs canard_2 write:
    Cm    = 0.646437
    Cd    = -0.972131
    Cl    = -0.569197
    Cl(f) = 0.361838
    Cl(r) = -0.931035

forceCoeffs canard_3 write:
    Cm    = 0.403366
    Cd    = -0.972131
    Cl    = -0.569197
    Cl(f) = 0.118768
    Cl(r) = -0.687964

forceCoeffs canard_4 write:
    Cm    = 0.160295
    Cd    = -0.972131
    Cl    = -0.569197
    Cl(f) = -0.124303
    Cl(r) = -0.444893

forceCoeffs canard_5 write:
    Cm    = -0.0827759
    Cd    = -0.972131
    Cl    = -0.569197
    Cl(f) = -0.367374
    Cl(r) = -0.201822

forceCoeffs canard_6 write:
    Cm    = -0.325847
    Cd    = -0.972131
    Cl    = -0.569197
    Cl(f) = -0.610445
    Cl(r) = 0.0412484

forceCoeffs canard_7 write:
    Cm    = -0.568918
    Cd    = -0.972131
    Cl    = -0.569197
    Cl(f) = -0.853516
    Cl(r) = 0.284319

forceCoeffs canard_8 write:
    Cm    = -0.811989
    Cd    = -0.972131
    Cl    = -0.569197
    Cl(f) = -1.09659
    Cl(r) = 0.52739

forceCoeffs canard_9 write:
    Cm    = -1.05506
    Cd    = -0.972131
    Cl    = -0.569197
    Cl(f) = -1.33966
    Cl(r) = 0.770461

forceCoeffs canard_10 write:
    Cm    = -1.29813
    Cd    = -0.972131
    Cl    = -0.569197
    Cl(f) = -1.58273
    Cl(r) = 1.01353

forceCoeffs canard_11 write:
    Cm    = -1.5412
    Cd    = -0.972131
    Cl    = -0.569197
    Cl(f) = -1.8258
    Cl(r) = 1.2566

Time = 11s

smoothSolver:  Solving for Ux, Initial residual = 0.0120734, Final residual = 0.000635038, No Iterations 4
smoothSolver:  Solving for Uy, Initial residual = 0.00433324, Final residual = 0.000272522, No Iterations 4
smoothSolver:  Solving for Uz, Initial residual = 0.0791566, Final residual = 0.00441151, No Iterations 4
GAMG:  Solving for p, Initial residual = 0.0779892, Final residual = 0.00514888, No Iterations 3
time step continuity errors : sum local = 0.00128613, global = 3.65754e-05, cumulative = 2.95674e-05
smoothSolver:  Solving for nuTilda, Initial residual = 0.0360047, Final residual = 0.00133878, No Iterations 2
bounding nuTilda, min: -0.00920142 max: 0.0638575 average: 0.0158286
ExecutionTime = 132.101 s  ClockTime = 142 s

forceCoeffs canard_1 write:
    Cm    = 0.40765
    Cd    = -0.499395
    Cl    = 0.0596332
    Cl(f) = 0.437467
    Cl(r) = -0.377834

forceCoeffs canard_2 write:
    Cm    = 0.366468
    Cd    = -0.499395
    Cl    = 0.0596332
    Cl(f) = 0.396285
    Cl(r) = -0.336652

forceCoeffs canard_3 write:
    Cm    = 0.325286
    Cd    = -0.499395
    Cl    = 0.0596332
    Cl(f) = 0.355103
    Cl(r) = -0.295469

forceCoeffs canard_4 write:
    Cm    = 0.284104
    Cd    = -0.499395
    Cl    = 0.0596332
    Cl(f) = 0.31392
    Cl(r) = -0.254287

forceCoeffs canard_5 write:
    Cm    = 0.242921
    Cd    = -0.499395
    Cl    = 0.0596332
    Cl(f) = 0.272738
    Cl(r) = -0.213105

forceCoeffs canard_6 write:
    Cm    = 0.201739
    Cd    = -0.499395
    Cl    = 0.0596332
    Cl(f) = 0.231556
    Cl(r) = -0.171923

forceCoeffs canard_7 write:
    Cm    = 0.160557
    Cd    = -0.499395
    Cl    = 0.0596332
    Cl(f) = 0.190374
    Cl(r) = -0.13074

forceCoeffs canard_8 write:
    Cm    = 0.119375
    Cd    = -0.499395
    Cl    = 0.0596332
    Cl(f) = 0.149191
    Cl(r) = -0.0895581

forceCoeffs canard_9 write:
    Cm    = 0.0781924
    Cd    = -0.499395
    Cl    = 0.0596332
    Cl(f) = 0.108009
    Cl(r) = -0.0483758

forceCoeffs canard_10 write:
    Cm    = 0.0370102
    Cd    = -0.499395
    Cl    = 0.0596332
    Cl(f) = 0.0668268
    Cl(r) = -0.00719358

forceCoeffs canard_11 write:
    Cm    = -0.00417205
    Cd    = -0.499395
    Cl    = 0.0596332
    Cl(f) = 0.0256446
    Cl(r) = 0.0339887

Time = 12s

smoothSolver:  Solving for Ux, Initial residual = 0.0122282, Final residual = 0.000621814, No Iterations 4
smoothSolver:  Solving for Uy, Initial residual = 0.00470834, Final residual = 0.000293439, No Iterations 4
smoothSolver:  Solving for Uz, Initial residual = 0.0603382, Final residual = 0.00329884, No Iterations 4
GAMG:  Solving for p, Initial residual = 0.079828, Final residual = 0.00417279, No Iterations 3
time step continuity errors : sum local = 0.00107455, global = 5.15085e-05, cumulative = 8.10759e-05
smoothSolver:  Solving for nuTilda, Initial residual = 0.0337816, Final residual = 0.0013264, No Iterations 2
bounding nuTilda, min: -0.0104748 max: 0.0638575 average: 0.0156765
ExecutionTime = 142.183 s  ClockTime = 152 s

forceCoeffs canard_1 write:
    Cm    = -0.564163
    Cd    = 0.574701
    Cl    = 1.65854
    Cl(f) = 0.265108
    Cl(r) = 1.39343

forceCoeffs canard_2 write:
    Cm    = -0.106188
    Cd    = 0.574701
    Cl    = 1.65854
    Cl(f) = 0.723082
    Cl(r) = 0.935459

forceCoeffs canard_3 write:
    Cm    = 0.351786
    Cd    = 0.574701
    Cl    = 1.65854
    Cl(f) = 1.18106
    Cl(r) = 0.477484

forceCoeffs canard_4 write:
    Cm    = 0.809761
    Cd    = 0.574701
    Cl    = 1.65854
    Cl(f) = 1.63903
    Cl(r) = 0.0195097

forceCoeffs canard_5 write:
    Cm    = 1.26774
    Cd    = 0.574701
    Cl    = 1.65854
    Cl(f) = 2.09701
    Cl(r) = -0.438465

forceCoeffs canard_6 write:
    Cm    = 1.72571
    Cd    = 0.574701
    Cl    = 1.65854
    Cl(f) = 2.55498
    Cl(r) = -0.896439

forceCoeffs canard_7 write:
    Cm    = 2.18368
    Cd    = 0.574701
    Cl    = 1.65854
    Cl(f) = 3.01295
    Cl(r) = -1.35441

forceCoeffs canard_8 write:
    Cm    = 2.64166
    Cd    = 0.574701
    Cl    = 1.65854
    Cl(f) = 3.47093
    Cl(r) = -1.81239

forceCoeffs canard_9 write:
    Cm    = 3.09963
    Cd    = 0.574701
    Cl    = 1.65854
    Cl(f) = 3.9289
    Cl(r) = -2.27036

forceCoeffs canard_10 write:
    Cm    = 3.55761
    Cd    = 0.574701
    Cl    = 1.65854
    Cl(f) = 4.38688
    Cl(r) = -2.72834

forceCoeffs canard_11 write:
    Cm    = 4.01558
    Cd    = 0.574701
    Cl    = 1.65854
    Cl(f) = 4.84485
    Cl(r) = -3.18631

Time = 13s

smoothSolver:  Solving for Ux, Initial residual = 0.0108928, Final residual = 0.000556632, No Iterations 4
smoothSolver:  Solving for Uy, Initial residual = 0.00500577, Final residual = 0.000298554, No Iterations 4
smoothSolver:  Solving for Uz, Initial residual = 0.0581567, Final residual = 0.00325629, No Iterations 4
GAMG:  Solving for p, Initial residual = 0.0911801, Final residual = 0.00836233, No Iterations 2
time step continuity errors : sum local = 0.00139773, global = -3.34742e-05, cumulative = 4.76018e-05
smoothSolver:  Solving for nuTilda, Initial residual = 0.0318803, Final residual = 0.00129947, No Iterations 2
bounding nuTilda, min: -0.0144437 max: 0.0638575 average: 0.0155438
ExecutionTime = 152.093 s  ClockTime = 162 s

forceCoeffs canard_1 write:
    Cm    = -1.03523
    Cd    = 1.13174
    Cl    = 2.54064
    Cl(f) = 0.235089
    Cl(r) = 2.30555

forceCoeffs canard_2 write:
    Cm    = -0.305814
    Cd    = 1.13174
    Cl    = 2.54064
    Cl(f) = 0.964504
    Cl(r) = 1.57613

forceCoeffs canard_3 write:
    Cm    = 0.423601
    Cd    = 1.13174
    Cl    = 2.54064
    Cl(f) = 1.69392
    Cl(r) = 0.846718

forceCoeffs canard_4 write:
    Cm    = 1.15302
    Cd    = 1.13174
    Cl    = 2.54064
    Cl(f) = 2.42333
    Cl(r) = 0.117303

forceCoeffs canard_5 write:
    Cm    = 1.88243
    Cd    = 1.13174
    Cl    = 2.54064
    Cl(f) = 3.15275
    Cl(r) = -0.612112

forceCoeffs canard_6 write:
    Cm    = 2.61185
    Cd    = 1.13174
    Cl    = 2.54064
    Cl(f) = 3.88216
    Cl(r) = -1.34153

forceCoeffs canard_7 write:
    Cm    = 3.34126
    Cd    = 1.13174
    Cl    = 2.54064
    Cl(f) = 4.61158
    Cl(r) = -2.07094

forceCoeffs canard_8 write:
    Cm    = 4.07068
    Cd    = 1.13174
    Cl    = 2.54064
    Cl(f) = 5.34099
    Cl(r) = -2.80036

forceCoeffs canard_9 write:
    Cm    = 4.80009
    Cd    = 1.13174
    Cl    = 2.54064
    Cl(f) = 6.07041
    Cl(r) = -3.52977

forceCoeffs canard_10 write:
    Cm    = 5.52951
    Cd    = 1.13174
    Cl    = 2.54064
    Cl(f) = 6.79982
    Cl(r) = -4.25919

forceCoeffs canard_11 write:
    Cm    = 6.25892
    Cd    = 1.13174
    Cl    = 2.54064
    Cl(f) = 7.52924
    Cl(r) = -4.9886

Time = 14s

smoothSolver:  Solving for Ux, Initial residual = 0.00863556, Final residual = 0.000461004, No Iterations 4
smoothSolver:  Solving for Uy, Initial residual = 0.0043088, Final residual = 0.00026117, No Iterations 4
smoothSolver:  Solving for Uz, Initial residual = 0.0559268, Final residual = 0.00307256, No Iterations 4
GAMG:  Solving for p, Initial residual = 0.173928, Final residual = 0.010277, No Iterations 3
time step continuity errors : sum local = 0.000867202, global = 2.75495e-06, cumulative = 5.03567e-05
smoothSolver:  Solving for nuTilda, Initial residual = 0.0306268, Final residual = 0.00124302, No Iterations 2
bounding nuTilda, min: -0.0133346 max: 0.0638575 average: 0.0154339
ExecutionTime = 162.414 s  ClockTime = 173 s

forceCoeffs canard_1 write:
    Cm    = -0.884416
    Cd    = 1.02927
    Cl    = 2.47123
    Cl(f) = 0.351199
    Cl(r) = 2.12003

forceCoeffs canard_2 write:
    Cm    = -0.18286
    Cd    = 1.02927
    Cl    = 2.47123
    Cl(f) = 1.05276
    Cl(r) = 1.41847

forceCoeffs canard_3 write:
    Cm    = 0.518697
    Cd    = 1.02927
    Cl    = 2.47123
    Cl(f) = 1.75431
    Cl(r) = 0.716918

forceCoeffs canard_4 write:
    Cm    = 1.22025
    Cd    = 1.02927
    Cl    = 2.47123
    Cl(f) = 2.45587
    Cl(r) = 0.0153623

forceCoeffs canard_5 write:
    Cm    = 1.92181
    Cd    = 1.02927
    Cl    = 2.47123
    Cl(f) = 3.15742
    Cl(r) = -0.686194

forceCoeffs canard_6 write:
    Cm    = 2.62336
    Cd    = 1.02927
    Cl    = 2.47123
    Cl(f) = 3.85898
    Cl(r) = -1.38775

forceCoeffs canard_7 write:
    Cm    = 3.32492
    Cd    = 1.02927
    Cl    = 2.47123
    Cl(f) = 4.56054
    Cl(r) = -2.08931

forceCoeffs canard_8 write:
    Cm    = 4.02648
    Cd    = 1.02927
    Cl    = 2.47123
    Cl(f) = 5.26209
    Cl(r) = -2.79086

forceCoeffs canard_9 write:
    Cm    = 4.72803
    Cd    = 1.02927
    Cl    = 2.47123
    Cl(f) = 5.96365
    Cl(r) = -3.49242

forceCoeffs canard_10 write:
    Cm    = 5.42959
    Cd    = 1.02927
    Cl    = 2.47123
    Cl(f) = 6.6652
    Cl(r) = -4.19397

forceCoeffs canard_11 write:
    Cm    = 6.13114
    Cd    = 1.02927
    Cl    = 2.47123
    Cl(f) = 7.36676
    Cl(r) = -4.89553

Time = 15s

smoothSolver:  Solving for Ux, Initial residual = 0.00730208, Final residual = 0.000401907, No Iterations 4
smoothSolver:  Solving for Uy, Initial residual = 0.00297736, Final residual = 0.000179054, No Iterations 4
smoothSolver:  Solving for Uz, Initial residual = 0.0510144, Final residual = 0.0027176, No Iterations 4
GAMG:  Solving for p, Initial residual = 0.234963, Final residual = 0.0132009, No Iterations 3
time step continuity errors : sum local = 0.000846939, global = -2.5261e-05, cumulative = 2.50957e-05
smoothSolver:  Solving for nuTilda, Initial residual = 0.0296977, Final residual = 0.00121597, No Iterations 2
bounding nuTilda, min: -0.0149896 max: 0.0638575 average: 0.0153383
ExecutionTime = 172.626 s  ClockTime = 183 s

forceCoeffs canard_1 write:
    Cm    = -0.462377
    Cd    = 0.591689
    Cl    = 1.8699
    Cl(f) = 0.472574
    Cl(r) = 1.39733

forceCoeffs canard_2 write:
    Cm    = 0.0477254
    Cd    = 0.591689
    Cl    = 1.8699
    Cl(f) = 0.982677
    Cl(r) = 0.887226

forceCoeffs canard_3 write:
    Cm    = 0.557828
    Cd    = 0.591689
    Cl    = 1.8699
    Cl(f) = 1.49278
    Cl(r) = 0.377124

forceCoeffs canard_4 write:
    Cm    = 1.06793
    Cd    = 0.591689
    Cl    = 1.8699
    Cl(f) = 2.00288
    Cl(r) = -0.132979

forceCoeffs canard_5 write:
    Cm    = 1.57803
    Cd    = 0.591689
    Cl    = 1.8699
    Cl(f) = 2.51299
    Cl(r) = -0.643082

forceCoeffs canard_6 write:
    Cm    = 2.08814
    Cd    = 0.591689
    Cl    = 1.8699
    Cl(f) = 3.02309
    Cl(r) = -1.15318

forceCoeffs canard_7 write:
    Cm    = 2.59824
    Cd    = 0.591689
    Cl    = 1.8699
    Cl(f) = 3.53319
    Cl(r) = -1.66329

forceCoeffs canard_8 write:
    Cm    = 3.10834
    Cd    = 0.591689
    Cl    = 1.8699
    Cl(f) = 4.04329
    Cl(r) = -2.17339

forceCoeffs canard_9 write:
    Cm    = 3.61844
    Cd    = 0.591689
    Cl    = 1.8699
    Cl(f) = 4.5534
    Cl(r) = -2.68349

forceCoeffs canard_10 write:
    Cm    = 4.12855
    Cd    = 0.591689
    Cl    = 1.8699
    Cl(f) = 5.0635
    Cl(r) = -3.1936

forceCoeffs canard_11 write:
    Cm    = 4.63865
    Cd    = 0.591689
    Cl    = 1.8699
    Cl(f) = 5.5736
    Cl(r) = -3.7037

Time = 16s

smoothSolver:  Solving for Ux, Initial residual = 0.00730464, Final residual = 0.000399294, No Iterations 4
smoothSolver:  Solving for Uy, Initial residual = 0.00286502, Final residual = 0.000164193, No Iterations 4
smoothSolver:  Solving for Uz, Initial residual = 0.0546427, Final residual = 0.00299774, No Iterations 4
GAMG:  Solving for p, Initial residual = 0.106724, Final residual = 0.0100081, No Iterations 2
time step continuity errors : sum local = 0.00112174, global = -3.82008e-05, cumulative = -1.31051e-05
smoothSolver:  Solving for nuTilda, Initial residual = 0.0290084, Final residual = 0.0011703, No Iterations 2
bounding nuTilda, min: -0.0133997 max: 0.0638575 average: 0.0152581
ExecutionTime = 182.389 s  ClockTime = 193 s

forceCoeffs canard_1 write:
    Cm    = -0.22129
    Cd    = 0.327803
    Cl    = 1.49656
    Cl(f) = 0.526988
    Cl(r) = 0.969568

forceCoeffs canard_2 write:
    Cm    = 0.170809
    Cd    = 0.327803
    Cl    = 1.49656
    Cl(f) = 0.919087
    Cl(r) = 0.57747

forceCoeffs canard_3 write:
    Cm    = 0.562907
    Cd    = 0.327803
    Cl    = 1.49656
    Cl(f) = 1.31119
    Cl(r) = 0.185371

forceCoeffs canard_4 write:
    Cm    = 0.955006
    Cd    = 0.327803
    Cl    = 1.49656
    Cl(f) = 1.70328
    Cl(r) = -0.206728

forceCoeffs canard_5 write:
    Cm    = 1.3471
    Cd    = 0.327803
    Cl    = 1.49656
    Cl(f) = 2.09538
    Cl(r) = -0.598826

forceCoeffs canard_6 write:
    Cm    = 1.7392
    Cd    = 0.327803
    Cl    = 1.49656
    Cl(f) = 2.48748
    Cl(r) = -0.990925

forceCoeffs canard_7 write:
    Cm    = 2.1313
    Cd    = 0.327803
    Cl    = 1.49656
    Cl(f) = 2.87958
    Cl(r) = -1.38302

forceCoeffs canard_8 write:
    Cm    = 2.5234
    Cd    = 0.327803
    Cl    = 1.49656
    Cl(f) = 3.27168
    Cl(r) = -1.77512

forceCoeffs canard_9 write:
    Cm    = 2.9155
    Cd    = 0.327803
    Cl    = 1.49656
    Cl(f) = 3.66378
    Cl(r) = -2.16722

forceCoeffs canard_10 write:
    Cm    = 3.3076
    Cd    = 0.327803
    Cl    = 1.49656
    Cl(f) = 4.05588
    Cl(r) = -2.55932

forceCoeffs canard_11 write:
    Cm    = 3.6997
    Cd    = 0.327803
    Cl    = 1.49656
    Cl(f) = 4.44797
    Cl(r) = -2.95142

Time = 17s

smoothSolver:  Solving for Ux, Initial residual = 0.00708577, Final residual = 0.000376239, No Iterations 4
smoothSolver:  Solving for Uy, Initial residual = 0.00321071, Final residual = 0.000181651, No Iterations 4
smoothSolver:  Solving for Uz, Initial residual = 0.0511312, Final residual = 0.0027283, No Iterations 4
GAMG:  Solving for p, Initial residual = 0.0644585, Final residual = 0.00339265, No Iterations 3
time step continuity errors : sum local = 0.000582082, global = 9.77172e-07, cumulative = -1.21279e-05
smoothSolver:  Solving for nuTilda, Initial residual = 0.0280575, Final residual = 0.0011564, No Iterations 2
bounding nuTilda, min: -0.0154316 max: 0.0638575 average: 0.0151866
ExecutionTime = 192.409 s  ClockTime = 203 s

forceCoeffs canard_1 write:
    Cm    = -0.208554
    Cd    = 0.291642
    Cl    = 1.433
    Cl(f) = 0.507946
    Cl(r) = 0.925055

forceCoeffs canard_2 write:
    Cm    = 0.164427
    Cd    = 0.291642
    Cl    = 1.433
    Cl(f) = 0.880928
    Cl(r) = 0.552073

forceCoeffs canard_3 write:
    Cm    = 0.537409
    Cd    = 0.291642
    Cl    = 1.433
    Cl(f) = 1.25391
    Cl(r) = 0.179091

forceCoeffs canard_4 write:
    Cm    = 0.910391
    Cd    = 0.291642
    Cl    = 1.433
    Cl(f) = 1.62689
    Cl(r) = -0.193891

forceCoeffs canard_5 write:
    Cm    = 1.28337
    Cd    = 0.291642
    Cl    = 1.433
    Cl(f) = 1.99987
    Cl(r) = -0.566872

forceCoeffs canard_6 write:
    Cm    = 1.65635
    Cd    = 0.291642
    Cl    = 1.433
    Cl(f) = 2.37285
    Cl(r) = -0.939854

forceCoeffs canard_7 write:
    Cm    = 2.02934
    Cd    = 0.291642
    Cl    = 1.433
    Cl(f) = 2.74584
    Cl(r) = -1.31284

forceCoeffs canard_8 write:
    Cm    = 2.40232
    Cd    = 0.291642
    Cl    = 1.433
    Cl(f) = 3.11882
    Cl(r) = -1.68582

forceCoeffs canard_9 write:
    Cm    = 2.7753
    Cd    = 0.291642
    Cl    = 1.433
    Cl(f) = 3.4918
    Cl(r) = -2.0588

forceCoeffs canard_10 write:
    Cm    = 3.14828
    Cd    = 0.291642
    Cl    = 1.433
    Cl(f) = 3.86478
    Cl(r) = -2.43178

forceCoeffs canard_11 write:
    Cm    = 3.52126
    Cd    = 0.291642
    Cl    = 1.433
    Cl(f) = 4.23776
    Cl(r) = -2.80476

Time = 18s

smoothSolver:  Solving for Ux, Initial residual = 0.00639485, Final residual = 0.000322353, No Iterations 4
smoothSolver:  Solving for Uy, Initial residual = 0.0031144, Final residual = 0.000173771, No Iterations 4
smoothSolver:  Solving for Uz, Initial residual = 0.0412561, Final residual = 0.00207488, No Iterations 4
GAMG:  Solving for p, Initial residual = 0.0527144, Final residual = 0.00283446, No Iterations 3
time step continuity errors : sum local = 0.000589641, global = 1.47599e-05, cumulative = 2.63193e-06
smoothSolver:  Solving for nuTilda, Initial residual = 0.0277949, Final residual = 0.00112412, No Iterations 2
bounding nuTilda, min: -0.013454 max: 0.0638575 average: 0.0151256
ExecutionTime = 202.718 s  ClockTime = 213 s

forceCoeffs canard_1 write:
    Cm    = -0.334259
    Cd    = 0.423341
    Cl    = 1.6255
    Cl(f) = 0.47849
    Cl(r) = 1.14701

forceCoeffs canard_2 write:
    Cm    = 0.0990819
    Cd    = 0.423341
    Cl    = 1.6255
    Cl(f) = 0.911831
    Cl(r) = 0.713667

forceCoeffs canard_3 write:
    Cm    = 0.532423
    Cd    = 0.423341
    Cl    = 1.6255
    Cl(f) = 1.34517
    Cl(r) = 0.280326

forceCoeffs canard_4 write:
    Cm    = 0.965764
    Cd    = 0.423341
    Cl    = 1.6255
    Cl(f) = 1.77851
    Cl(r) = -0.153015

forceCoeffs canard_5 write:
    Cm    = 1.39911
    Cd    = 0.423341
    Cl    = 1.6255
    Cl(f) = 2.21185
    Cl(r) = -0.586356

forceCoeffs canard_6 write:
    Cm    = 1.83245
    Cd    = 0.423341
    Cl    = 1.6255
    Cl(f) = 2.6452
    Cl(r) = -1.0197

forceCoeffs canard_7 write:
    Cm    = 2.26579
    Cd    = 0.423341
    Cl    = 1.6255
    Cl(f) = 3.07854
    Cl(r) = -1.45304

forceCoeffs canard_8 write:
    Cm    = 2.69913
    Cd    = 0.423341
    Cl    = 1.6255
    Cl(f) = 3.51188
    Cl(r) = -1.88638

forceCoeffs canard_9 write:
    Cm    = 3.13247
    Cd    = 0.423341
    Cl    = 1.6255
    Cl(f) = 3.94522
    Cl(r) = -2.31972

forceCoeffs canard_10 write:
    Cm    = 3.56581
    Cd    = 0.423341
    Cl    = 1.6255
    Cl(f) = 4.37856
    Cl(r) = -2.75306

forceCoeffs canard_11 write:
    Cm    = 3.99915
    Cd    = 0.423341
    Cl    = 1.6255
    Cl(f) = 4.8119
    Cl(r) = -3.1864

Time = 19s

smoothSolver:  Solving for Ux, Initial residual = 0.00578455, Final residual = 0.000294539, No Iterations 4
smoothSolver:  Solving for Uy, Initial residual = 0.0029474, Final residual = 0.000167852, No Iterations 4
smoothSolver:  Solving for Uz, Initial residual = 0.0348152, Final residual = 0.001766, No Iterations 4
GAMG:  Solving for p, Initial residual = 0.0495671, Final residual = 0.00454774, No Iterations 2
time step continuity errors : sum local = 0.000868927, global = 4.76164e-05, cumulative = 5.02483e-05
smoothSolver:  Solving for nuTilda, Initial residual = 0.0272839, Final residual = 0.00111779, No Iterations 2
bounding nuTilda, min: -0.0152138 max: 0.0638575 average: 0.0150719
ExecutionTime = 212.673 s  ClockTime = 223 s

forceCoeffs canard_1 write:
    Cm    = -0.410036
    Cd    = 0.513532
    Cl    = 1.76017
    Cl(f) = 0.47005
    Cl(r) = 1.29012

forceCoeffs canard_2 write:
    Cm    = 0.0653178
    Cd    = 0.513532
    Cl    = 1.76017
    Cl(f) = 0.945404
    Cl(r) = 0.814769

forceCoeffs canard_3 write:
    Cm    = 0.540672
    Cd    = 0.513532
    Cl    = 1.76017
    Cl(f) = 1.42076
    Cl(r) = 0.339415

forceCoeffs canard_4 write:
    Cm    = 1.01603
    Cd    = 0.513532
    Cl    = 1.76017
    Cl(f) = 1.89611
    Cl(r) = -0.135939

forceCoeffs canard_5 write:
    Cm    = 1.49138
    Cd    = 0.513532
    Cl    = 1.76017
    Cl(f) = 2.37147
    Cl(r) = -0.611293

forceCoeffs canard_6 write:
    Cm    = 1.96673
    Cd    = 0.513532
    Cl    = 1.76017
    Cl(f) = 2.84682
    Cl(r) = -1.08665

forceCoeffs canard_7 write:
    Cm    = 2.44209
    Cd    = 0.513532
    Cl    = 1.76017
    Cl(f) = 3.32217
    Cl(r) = -1.562

forceCoeffs canard_8 write:
    Cm    = 2.91744
    Cd    = 0.513532
    Cl    = 1.76017
    Cl(f) = 3.79753
    Cl(r) = -2.03735

forceCoeffs canard_9 write:
    Cm    = 3.3928
    Cd    = 0.513532
    Cl    = 1.76017
    Cl(f) = 4.27288
    Cl(r) = -2.51271

forceCoeffs canard_10 write:
    Cm    = 3.86815
    Cd    = 0.513532
    Cl    = 1.76017
    Cl(f) = 4.74824
    Cl(r) = -2.98806

forceCoeffs canard_11 write:
    Cm    = 4.3435
    Cd    = 0.513532
    Cl    = 1.76017
    Cl(f) = 5.22359
    Cl(r) = -3.46342

Time = 20s

smoothSolver:  Solving for Ux, Initial residual = 0.00510012, Final residual = 0.000258513, No Iterations 4
smoothSolver:  Solving for Uy, Initial residual = 0.0027493, Final residual = 0.000153026, No Iterations 4
smoothSolver:  Solving for Uz, Initial residual = 0.0306414, Final residual = 0.00157658, No Iterations 4
GAMG:  Solving for p, Initial residual = 0.0549376, Final residual = 0.00243475, No Iterations 3
time step continuity errors : sum local = 0.000379695, global = 2.05088e-05, cumulative = 7.07571e-05
smoothSolver:  Solving for nuTilda, Initial residual = 0.0271334, Final residual = 0.00109134, No Iterations 2
bounding nuTilda, min: -0.0134673 max: 0.0638575 average: 0.015026
ExecutionTime = 229.314 s  ClockTime = 240 s

forceCoeffs canard_1 write:
    Cm    = -0.413261
    Cd    = 0.541563
    Cl    = 1.81018
    Cl(f) = 0.491828
    Cl(r) = 1.31835

forceCoeffs canard_2 write:
    Cm    = 0.077087
    Cd    = 0.541563
    Cl    = 1.81018
    Cl(f) = 0.982176
    Cl(r) = 0.828002

forceCoeffs canard_3 write:
    Cm    = 0.567435
    Cd    = 0.541563
    Cl    = 1.81018
    Cl(f) = 1.47252
    Cl(r) = 0.337654

forceCoeffs canard_4 write:
    Cm    = 1.05778
    Cd    = 0.541563
    Cl    = 1.81018
    Cl(f) = 1.96287
    Cl(r) = -0.152695

forceCoeffs canard_5 write:
    Cm    = 1.54813
    Cd    = 0.541563
    Cl    = 1.81018
    Cl(f) = 2.45322
    Cl(r) = -0.643043

forceCoeffs canard_6 write:
    Cm    = 2.03848
    Cd    = 0.541563
    Cl    = 1.81018
    Cl(f) = 2.94357
    Cl(r) = -1.13339

forceCoeffs canard_7 write:
    Cm    = 2.52883
    Cd    = 0.541563
    Cl    = 1.81018
    Cl(f) = 3.43392
    Cl(r) = -1.62374

forceCoeffs canard_8 write:
    Cm    = 3.01918
    Cd    = 0.541563
    Cl    = 1.81018
    Cl(f) = 3.92427
    Cl(r) = -2.11409

forceCoeffs canard_9 write:
    Cm    = 3.50953
    Cd    = 0.541563
    Cl    = 1.81018
    Cl(f) = 4.41462
    Cl(r) = -2.60444

forceCoeffs canard_10 write:
    Cm    = 3.99987
    Cd    = 0.541563
    Cl    = 1.81018
    Cl(f) = 4.90496
    Cl(r) = -3.09479

forceCoeffs canard_11 write:
    Cm    = 4.49022
    Cd    = 0.541563
    Cl    = 1.81018
    Cl(f) = 5.39531
    Cl(r) = -3.58513

Time = 21s

smoothSolver:  Solving for Ux, Initial residual = 0.00446868, Final residual = 0.000228379, No Iterations 4
smoothSolver:  Solving for Uy, Initial residual = 0.00249963, Final residual = 0.000134432, No Iterations 4
smoothSolver:  Solving for Uz, Initial residual = 0.0293848, Final residual = 0.00150655, No Iterations 4
GAMG:  Solving for p, Initial residual = 0.0617959, Final residual = 0.00290157, No Iterations 3
time step continuity errors : sum local = 0.000368093, global = 1.03926e-05, cumulative = 8.11497e-05
smoothSolver:  Solving for nuTilda, Initial residual = 0.0267532, Final residual = 0.00108969, No Iterations 2
bounding nuTilda, min: -0.015732 max: 0.0638575 average: 0.0149847
ExecutionTime = 239.82 s  ClockTime = 251 s

forceCoeffs canard_1 write:
    Cm    = -0.363691
    Cd    = 0.508751
    Cl    = 1.77092
    Cl(f) = 0.521771
    Cl(r) = 1.24915

forceCoeffs canard_2 write:
    Cm    = 0.113688
    Cd    = 0.508751
    Cl    = 1.77092
    Cl(f) = 0.99915
    Cl(r) = 0.771773

forceCoeffs canard_3 write:
    Cm    = 0.591068
    Cd    = 0.508751
    Cl    = 1.77092
    Cl(f) = 1.47653
    Cl(r) = 0.294394

forceCoeffs canard_4 write:
    Cm    = 1.06845
    Cd    = 0.508751
    Cl    = 1.77092
    Cl(f) = 1.95391
    Cl(r) = -0.182986

forceCoeffs canard_5 write:
    Cm    = 1.54583
    Cd    = 0.508751
    Cl    = 1.77092
    Cl(f) = 2.43129
    Cl(r) = -0.660365

forceCoeffs canard_6 write:
    Cm    = 2.02321
    Cd    = 0.508751
    Cl    = 1.77092
    Cl(f) = 2.90867
    Cl(r) = -1.13774

forceCoeffs canard_7 write:
    Cm    = 2.50059
    Cd    = 0.508751
    Cl    = 1.77092
    Cl(f) = 3.38605
    Cl(r) = -1.61512

forceCoeffs canard_8 write:
    Cm    = 2.97797
    Cd    = 0.508751
    Cl    = 1.77092
    Cl(f) = 3.86343
    Cl(r) = -2.0925

forceCoeffs canard_9 write:
    Cm    = 3.45534
    Cd    = 0.508751
    Cl    = 1.77092
    Cl(f) = 4.34081
    Cl(r) = -2.56988

forceCoeffs canard_10 write:
    Cm    = 3.93272
    Cd    = 0.508751
    Cl    = 1.77092
    Cl(f) = 4.81819
    Cl(r) = -3.04726

forceCoeffs canard_11 write:
    Cm    = 4.4101
    Cd    = 0.508751
    Cl    = 1.77092
    Cl(f) = 5.29557
    Cl(r) = -3.52464

Time = 22s

smoothSolver:  Solving for Ux, Initial residual = 0.00420015, Final residual = 0.000222391, No Iterations 4
smoothSolver:  Solving for Uy, Initial residual = 0.00232563, Final residual = 0.000126574, No Iterations 4
smoothSolver:  Solving for Uz, Initial residual = 0.0298787, Final residual = 0.00155006, No Iterations 4
GAMG:  Solving for p, Initial residual = 0.0549248, Final residual = 0.00515123, No Iterations 2
time step continuity errors : sum local = 0.000680555, global = -4.50432e-05, cumulative = 3.61065e-05
smoothSolver:  Solving for nuTilda, Initial residual = 0.0267086, Final residual = 0.00106717, No Iterations 2
bounding nuTilda, min: -0.0134753 max: 0.0638575 average: 0.0149488
ExecutionTime = 249.731 s  ClockTime = 260 s

forceCoeffs canard_1 write:
    Cm    = -0.32554
    Cd    = 0.480853
    Cl    = 1.73989
    Cl(f) = 0.544403
    Cl(r) = 1.19548

forceCoeffs canard_2 write:
    Cm    = 0.141369
    Cd    = 0.480853
    Cl    = 1.73989
    Cl(f) = 1.01131
    Cl(r) = 0.728575

forceCoeffs canard_3 write:
    Cm    = 0.608278
    Cd    = 0.480853
    Cl    = 1.73989
    Cl(f) = 1.47822
    Cl(r) = 0.261666

forceCoeffs canard_4 write:
    Cm    = 1.07519
    Cd    = 0.480853
    Cl    = 1.73989
    Cl(f) = 1.94513
    Cl(r) = -0.205243

forceCoeffs canard_5 write:
    Cm    = 1.5421
    Cd    = 0.480853
    Cl    = 1.73989
    Cl(f) = 2.41204
    Cl(r) = -0.672152

forceCoeffs canard_6 write:
    Cm    = 2.009
    Cd    = 0.480853
    Cl    = 1.73989
    Cl(f) = 2.87895
    Cl(r) = -1.13906

forceCoeffs canard_7 write:
    Cm    = 2.47591
    Cd    = 0.480853
    Cl    = 1.73989
    Cl(f) = 3.34586
    Cl(r) = -1.60597

forceCoeffs canard_8 write:
    Cm    = 2.94282
    Cd    = 0.480853
    Cl    = 1.73989
    Cl(f) = 3.81277
    Cl(r) = -2.07288

forceCoeffs canard_9 write:
    Cm    = 3.40973
    Cd    = 0.480853
    Cl    = 1.73989
    Cl(f) = 4.27967
    Cl(r) = -2.53979

forceCoeffs canard_10 write:
    Cm    = 3.87664
    Cd    = 0.480853
    Cl    = 1.73989
    Cl(f) = 4.74658
    Cl(r) = -3.0067

forceCoeffs canard_11 write:
    Cm    = 4.34355
    Cd    = 0.480853
    Cl    = 1.73989
    Cl(f) = 5.21349
    Cl(r) = -3.4736

Time = 23s

smoothSolver:  Solving for Ux, Initial residual = 0.00409082, Final residual = 0.000214348, No Iterations 4
smoothSolver:  Solving for Uy, Initial residual = 0.00223813, Final residual = 0.000120183, No Iterations 4
smoothSolver:  Solving for Uz, Initial residual = 0.0289873, Final residual = 0.00146933, No Iterations 4
GAMG:  Solving for p, Initial residual = 0.0429717, Final residual = 0.00197634, No Iterations 3
time step continuity errors : sum local = 0.000307515, global = -6.65744e-06, cumulative = 2.94491e-05
smoothSolver:  Solving for nuTilda, Initial residual = 0.02658, Final residual = 0.00106725, No Iterations 2
bounding nuTilda, min: -0.0156067 max: 0.0638575 average: 0.0149166
ExecutionTime = 260.43 s  ClockTime = 271 s

forceCoeffs canard_1 write:
    Cm    = -0.302445
    Cd    = 0.468361
    Cl    = 1.73794
    Cl(f) = 0.566526
    Cl(r) = 1.17142

forceCoeffs canard_2 write:
    Cm    = 0.162616
    Cd    = 0.468361
    Cl    = 1.73794
    Cl(f) = 1.03159
    Cl(r) = 0.706355

forceCoeffs canard_3 write:
    Cm    = 0.627678
    Cd    = 0.468361
    Cl    = 1.73794
    Cl(f) = 1.49665
    Cl(r) = 0.241293

forceCoeffs canard_4 write:
    Cm    = 1.09274
    Cd    = 0.468361
    Cl    = 1.73794
    Cl(f) = 1.96171
    Cl(r) = -0.223769

forceCoeffs canard_5 write:
    Cm    = 1.5578
    Cd    = 0.468361
    Cl    = 1.73794
    Cl(f) = 2.42677
    Cl(r) = -0.688831

forceCoeffs canard_6 write:
    Cm    = 2.02286
    Cd    = 0.468361
    Cl    = 1.73794
    Cl(f) = 2.89184
    Cl(r) = -1.15389

forceCoeffs canard_7 write:
    Cm    = 2.48793
    Cd    = 0.468361
    Cl    = 1.73794
    Cl(f) = 3.3569
    Cl(r) = -1.61895

forceCoeffs canard_8 write:
    Cm    = 2.95299
    Cd    = 0.468361
    Cl    = 1.73794
    Cl(f) = 3.82196
    Cl(r) = -2.08402

forceCoeffs canard_9 write:
    Cm    = 3.41805
    Cd    = 0.468361
    Cl    = 1.73794
    Cl(f) = 4.28702
    Cl(r) = -2.54908

forceCoeffs canard_10 write:
    Cm    = 3.88311
    Cd    = 0.468361
    Cl    = 1.73794
    Cl(f) = 4.75208
    Cl(r) = -3.01414

forceCoeffs canard_11 write:
    Cm    = 4.34817
    Cd    = 0.468361
    Cl    = 1.73794
    Cl(f) = 5.21714
    Cl(r) = -3.4792

Time = 24s

smoothSolver:  Solving for Ux, Initial residual = 0.00403631, Final residual = 0.000203912, No Iterations 4
smoothSolver:  Solving for Uy, Initial residual = 0.00237508, Final residual = 0.000122596, No Iterations 4
smoothSolver:  Solving for Uz, Initial residual = 0.0287739, Final residual = 0.00140122, No Iterations 4
GAMG:  Solving for p, Initial residual = 0.0321125, Final residual = 0.00307138, No Iterations 2
time step continuity errors : sum local = 0.000556822, global = -2.28147e-05, cumulative = 6.63439e-06
smoothSolver:  Solving for nuTilda, Initial residual = 0.0266172, Final residual = 0.00104898, No Iterations 2
bounding nuTilda, min: -0.0134807 max: 0.0638575 average: 0.0148892
ExecutionTime = 270.181 s  ClockTime = 281 s

forceCoeffs canard_1 write:
    Cm    = -0.295099
    Cd    = 0.467221
    Cl    = 1.75109
    Cl(f) = 0.580443
    Cl(r) = 1.17064

forceCoeffs canard_2 write:
    Cm    = 0.172961
    Cd    = 0.467221
    Cl    = 1.75109
    Cl(f) = 1.0485
    Cl(r) = 0.702582

forceCoeffs canard_3 write:
    Cm    = 0.64102
    Cd    = 0.467221
    Cl    = 1.75109
    Cl(f) = 1.51656
    Cl(r) = 0.234522

forceCoeffs canard_4 write:
    Cm    = 1.10908
    Cd    = 0.467221
    Cl    = 1.75109
    Cl(f) = 1.98462
    Cl(r) = -0.233538

forceCoeffs canard_5 write:
    Cm    = 1.57714
    Cd    = 0.467221
    Cl    = 1.75109
    Cl(f) = 2.45268
    Cl(r) = -0.701598

forceCoeffs canard_6 write:
    Cm    = 2.0452
    Cd    = 0.467221
    Cl    = 1.75109
    Cl(f) = 2.92074
    Cl(r) = -1.16966

forceCoeffs canard_7 write:
    Cm    = 2.51326
    Cd    = 0.467221
    Cl    = 1.75109
    Cl(f) = 3.3888
    Cl(r) = -1.63772

forceCoeffs canard_8 write:
    Cm    = 2.98132
    Cd    = 0.467221
    Cl    = 1.75109
    Cl(f) = 3.85686
    Cl(r) = -2.10578

forceCoeffs canard_9 write:
    Cm    = 3.44938
    Cd    = 0.467221
    Cl    = 1.75109
    Cl(f) = 4.32492
    Cl(r) = -2.57384

forceCoeffs canard_10 write:
    Cm    = 3.91744
    Cd    = 0.467221
    Cl    = 1.75109
    Cl(f) = 4.79298
    Cl(r) = -3.0419

forceCoeffs canard_11 write:
    Cm    = 4.3855
    Cd    = 0.467221
    Cl    = 1.75109
    Cl(f) = 5.26104
    Cl(r) = -3.50996

Time = 25s

smoothSolver:  Solving for Ux, Initial residual = 0.00379618, Final residual = 0.000191422, No Iterations 4
smoothSolver:  Solving for Uy, Initial residual = 0.00239953, Final residual = 0.000124282, No Iterations 4
smoothSolver:  Solving for Uz, Initial residual = 0.0270258, Final residual = 0.00130098, No Iterations 4
GAMG:  Solving for p, Initial residual = 0.030695, Final residual = 0.00295306, No Iterations 2
time step continuity errors : sum local = 0.000543258, global = 1.01352e-05, cumulative = 1.67696e-05
smoothSolver:  Solving for nuTilda, Initial residual = 0.026143, Final residual = 0.00105078, No Iterations 2
bounding nuTilda, min: -0.0158944 max: 0.0638575 average: 0.0148652
ExecutionTime = 279.823 s  ClockTime = 291 s

forceCoeffs canard_1 write:
    Cm    = -0.279469
    Cd    = 0.453071
    Cl    = 1.73807
    Cl(f) = 0.589567
    Cl(r) = 1.1485

forceCoeffs canard_2 write:
    Cm    = 0.183929
    Cd    = 0.453071
    Cl    = 1.73807
    Cl(f) = 1.05296
    Cl(r) = 0.685106

forceCoeffs canard_3 write:
    Cm    = 0.647327
    Cd    = 0.453071
    Cl    = 1.73807
    Cl(f) = 1.51636
    Cl(r) = 0.221709

forceCoeffs canard_4 write:
    Cm    = 1.11072
    Cd    = 0.453071
    Cl    = 1.73807
    Cl(f) = 1.97976
    Cl(r) = -0.241689

forceCoeffs canard_5 write:
    Cm    = 1.57412
    Cd    = 0.453071
    Cl    = 1.73807
    Cl(f) = 2.44316
    Cl(r) = -0.705086

forceCoeffs canard_6 write:
    Cm    = 2.03752
    Cd    = 0.453071
    Cl    = 1.73807
    Cl(f) = 2.90656
    Cl(r) = -1.16848

forceCoeffs canard_7 write:
    Cm    = 2.50092
    Cd    = 0.453071
    Cl    = 1.73807
    Cl(f) = 3.36995
    Cl(r) = -1.63188

forceCoeffs canard_8 write:
    Cm    = 2.96431
    Cd    = 0.453071
    Cl    = 1.73807
    Cl(f) = 3.83335
    Cl(r) = -2.09528

forceCoeffs canard_9 write:
    Cm    = 3.42771
    Cd    = 0.453071
    Cl    = 1.73807
    Cl(f) = 4.29675
    Cl(r) = -2.55868

forceCoeffs canard_10 write:
    Cm    = 3.89111
    Cd    = 0.453071
    Cl    = 1.73807
    Cl(f) = 4.76015
    Cl(r) = -3.02207

forceCoeffs canard_11 write:
    Cm    = 4.35451
    Cd    = 0.453071
    Cl    = 1.73807
    Cl(f) = 5.22354
    Cl(r) = -3.48547

Time = 26s

smoothSolver:  Solving for Ux, Initial residual = 0.00349018, Final residual = 0.000175361, No Iterations 4
smoothSolver:  Solving for Uy, Initial residual = 0.00223679, Final residual = 0.00011826, No Iterations 4
smoothSolver:  Solving for Uz, Initial residual = 0.0230388, Final residual = 0.00110894, No Iterations 4
GAMG:  Solving for p, Initial residual = 0.0304246, Final residual = 0.00150693, No Iterations 3
time step continuity errors : sum local = 0.000259841, global = 1.657e-05, cumulative = 3.33395e-05
smoothSolver:  Solving for nuTilda, Initial residual = 0.0262424, Final residual = 0.00103379, No Iterations 2
bounding nuTilda, min: -0.0134874 max: 0.0638575 average: 0.0148441
ExecutionTime = 289.884 s  ClockTime = 301 s

forceCoeffs canard_1 write:
    Cm    = -0.255391
    Cd    = 0.427309
    Cl    = 1.69788
    Cl(f) = 0.593549
    Cl(r) = 1.10433

forceCoeffs canard_2 write:
    Cm    = 0.195597
    Cd    = 0.427309
    Cl    = 1.69788
    Cl(f) = 1.04454
    Cl(r) = 0.653343

forceCoeffs canard_3 write:
    Cm    = 0.646584
    Cd    = 0.427309
    Cl    = 1.69788
    Cl(f) = 1.49552
    Cl(r) = 0.202355

forceCoeffs canard_4 write:
    Cm    = 1.09757
    Cd    = 0.427309
    Cl    = 1.69788
    Cl(f) = 1.94651
    Cl(r) = -0.248632

forceCoeffs canard_5 write:
    Cm    = 1.54856
    Cd    = 0.427309
    Cl    = 1.69788
    Cl(f) = 2.3975
    Cl(r) = -0.69962

forceCoeffs canard_6 write:
    Cm    = 1.99955
    Cd    = 0.427309
    Cl    = 1.69788
    Cl(f) = 2.84849
    Cl(r) = -1.15061

forceCoeffs canard_7 write:
    Cm    = 2.45053
    Cd    = 0.427309
    Cl    = 1.69788
    Cl(f) = 3.29947
    Cl(r) = -1.60159

forceCoeffs canard_8 write:
    Cm    = 2.90152
    Cd    = 0.427309
    Cl    = 1.69788
    Cl(f) = 3.75046
    Cl(r) = -2.05258

forceCoeffs canard_9 write:
    Cm    = 3.35251
    Cd    = 0.427309
    Cl    = 1.69788
    Cl(f) = 4.20145
    Cl(r) = -2.50357

forceCoeffs canard_10 write:
    Cm    = 3.8035
    Cd    = 0.427309
    Cl    = 1.69788
    Cl(f) = 4.65244
    Cl(r) = -2.95456

forceCoeffs canard_11 write:
    Cm    = 4.25448
    Cd    = 0.427309
    Cl    = 1.69788
    Cl(f) = 5.10342
    Cl(r) = -3.40554

Time = 27s

smoothSolver:  Solving for Ux, Initial residual = 0.00329281, Final residual = 0.000161881, No Iterations 4
smoothSolver:  Solving for Uy, Initial residual = 0.00211442, Final residual = 0.000113948, No Iterations 4
smoothSolver:  Solving for Uz, Initial residual = 0.0205963, Final residual = 0.00103841, No Iterations 4
GAMG:  Solving for p, Initial residual = 0.029159, Final residual = 0.00256866, No Iterations 2
time step continuity errors : sum local = 0.00040246, global = 1.63745e-05, cumulative = 4.97141e-05
smoothSolver:  Solving for nuTilda, Initial residual = 0.0260103, Final residual = 0.00104019, No Iterations 2
bounding nuTilda, min: -0.01574 max: 0.0638575 average: 0.0148242
ExecutionTime = 299.546 s  ClockTime = 310 s

forceCoeffs canard_1 write:
    Cm    = -0.244346
    Cd    = 0.417216
    Cl    = 1.67777
    Cl(f) = 0.594541
    Cl(r) = 1.08323

forceCoeffs canard_2 write:
    Cm    = 0.200743
    Cd    = 0.417216
    Cl    = 1.67777
    Cl(f) = 1.03963
    Cl(r) = 0.638144

forceCoeffs canard_3 write:
    Cm    = 0.645833
    Cd    = 0.417216
    Cl    = 1.67777
    Cl(f) = 1.48472
    Cl(r) = 0.193055

forceCoeffs canard_4 write:
    Cm    = 1.09092
    Cd    = 0.417216
    Cl    = 1.67777
    Cl(f) = 1.92981
    Cl(r) = -0.252035

forceCoeffs canard_5 write:
    Cm    = 1.53601
    Cd    = 0.417216
    Cl    = 1.67777
    Cl(f) = 2.3749
    Cl(r) = -0.697124

forceCoeffs canard_6 write:
    Cm    = 1.9811
    Cd    = 0.417216
    Cl    = 1.67777
    Cl(f) = 2.81999
    Cl(r) = -1.14221

forceCoeffs canard_7 write:
    Cm    = 2.42619
    Cd    = 0.417216
    Cl    = 1.67777
    Cl(f) = 3.26508
    Cl(r) = -1.5873

forceCoeffs canard_8 write:
    Cm    = 2.87128
    Cd    = 0.417216
    Cl    = 1.67777
    Cl(f) = 3.71017
    Cl(r) = -2.03239

forceCoeffs canard_9 write:
    Cm    = 3.31637
    Cd    = 0.417216
    Cl    = 1.67777
    Cl(f) = 4.15526
    Cl(r) = -2.47748

forceCoeffs canard_10 write:
    Cm    = 3.76146
    Cd    = 0.417216
    Cl    = 1.67777
    Cl(f) = 4.60035
    Cl(r) = -2.92257

forceCoeffs canard_11 write:
    Cm    = 4.20655
    Cd    = 0.417216
    Cl    = 1.67777
    Cl(f) = 5.04544
    Cl(r) = -3.36766

Time = 28s

smoothSolver:  Solving for Ux, Initial residual = 0.00310355, Final residual = 0.00015293, No Iterations 4
smoothSolver:  Solving for Uy, Initial residual = 0.00204701, Final residual = 0.000109461, No Iterations 4
smoothSolver:  Solving for Uz, Initial residual = 0.0201475, Final residual = 0.00102254, No Iterations 4
GAMG:  Solving for p, Initial residual = 0.0288197, Final residual = 0.00272073, No Iterations 2
time step continuity errors : sum local = 0.000418014, global = -1.63669e-05, cumulative = 3.33471e-05
smoothSolver:  Solving for nuTilda, Initial residual = 0.0260765, Final residual = 0.00102562, No Iterations 2
bounding nuTilda, min: -0.0134968 max: 0.0638575 average: 0.0148054
ExecutionTime = 309.051 s  ClockTime = 320 s

forceCoeffs canard_1 write:
    Cm    = -0.244731
    Cd    = 0.424452
    Cl    = 1.68517
    Cl(f) = 0.597855
    Cl(r) = 1.08732

forceCoeffs canard_2 write:
    Cm    = 0.202919
    Cd    = 0.424452
    Cl    = 1.68517
    Cl(f) = 1.04551
    Cl(r) = 0.639667

forceCoeffs canard_3 write:
    Cm    = 0.650569
    Cd    = 0.424452
    Cl    = 1.68517
    Cl(f) = 1.49316
    Cl(r) = 0.192017

forceCoeffs canard_4 write:
    Cm    = 1.09822
    Cd    = 0.424452
    Cl    = 1.68517
    Cl(f) = 1.94081
    Cl(r) = -0.255633

forceCoeffs canard_5 write:
    Cm    = 1.54587
    Cd    = 0.424452
    Cl    = 1.68517
    Cl(f) = 2.38846
    Cl(r) = -0.703283

forceCoeffs canard_6 write:
    Cm    = 1.99352
    Cd    = 0.424452
    Cl    = 1.68517
    Cl(f) = 2.8361
    Cl(r) = -1.15093

forceCoeffs canard_7 write:
    Cm    = 2.44117
    Cd    = 0.424452
    Cl    = 1.68517
    Cl(f) = 3.28375
    Cl(r) = -1.59858

forceCoeffs canard_8 write:
    Cm    = 2.88882
    Cd    = 0.424452
    Cl    = 1.68517
    Cl(f) = 3.7314
    Cl(r) = -2.04623

forceCoeffs canard_9 write:
    Cm    = 3.33647
    Cd    = 0.424452
    Cl    = 1.68517
    Cl(f) = 4.17905
    Cl(r) = -2.49388

forceCoeffs canard_10 write:
    Cm    = 3.78412
    Cd    = 0.424452
    Cl    = 1.68517
    Cl(f) = 4.6267
    Cl(r) = -2.94153

forceCoeffs canard_11 write:
    Cm    = 4.23177
    Cd    = 0.424452
    Cl    = 1.68517
    Cl(f) = 5.07435
    Cl(r) = -3.38918

Time = 29s

smoothSolver:  Solving for Ux, Initial residual = 0.00288241, Final residual = 0.000145672, No Iterations 4
smoothSolver:  Solving for Uy, Initial residual = 0.00194852, Final residual = 0.00010331, No Iterations 4
smoothSolver:  Solving for Uz, Initial residual = 0.0198385, Final residual = 0.000984837, No Iterations 4
GAMG:  Solving for p, Initial residual = 0.0259378, Final residual = 0.00124388, No Iterations 3
time step continuity errors : sum local = 0.000198151, global = 1.31405e-05, cumulative = 4.64876e-05
smoothSolver:  Solving for nuTilda, Initial residual = 0.0258511, Final residual = 0.00103156, No Iterations 2
bounding nuTilda, min: -0.0156834 max: 0.0638575 average: 0.0147876
ExecutionTime = 319.009 s  ClockTime = 330 s

forceCoeffs canard_1 write:
    Cm    = -0.252948
    Cd    = 0.445266
    Cl    = 1.72187
    Cl(f) = 0.607985
    Cl(r) = 1.11388

forceCoeffs canard_2 write:
    Cm    = 0.205732
    Cd    = 0.445266
    Cl    = 1.72187
    Cl(f) = 1.06667
    Cl(r) = 0.655201

forceCoeffs canard_3 write:
    Cm    = 0.664412
    Cd    = 0.445266
    Cl    = 1.72187
    Cl(f) = 1.52535
    Cl(r) = 0.196521

forceCoeffs canard_4 write:
    Cm    = 1.12309
    Cd    = 0.445266
    Cl    = 1.72187
    Cl(f) = 1.98403
    Cl(r) = -0.262159

forceCoeffs canard_5 write:
    Cm    = 1.58177
    Cd    = 0.445266
    Cl    = 1.72187
    Cl(f) = 2.44271
    Cl(r) = -0.720839

forceCoeffs canard_6 write:
    Cm    = 2.04045
    Cd    = 0.445266
    Cl    = 1.72187
    Cl(f) = 2.90139
    Cl(r) = -1.17952

forceCoeffs canard_7 write:
    Cm    = 2.49913
    Cd    = 0.445266
    Cl    = 1.72187
    Cl(f) = 3.36007
    Cl(r) = -1.6382

forceCoeffs canard_8 write:
    Cm    = 2.95781
    Cd    = 0.445266
    Cl    = 1.72187
    Cl(f) = 3.81875
    Cl(r) = -2.09688

forceCoeffs canard_9 write:
    Cm    = 3.41649
    Cd    = 0.445266
    Cl    = 1.72187
    Cl(f) = 4.27743
    Cl(r) = -2.55556

forceCoeffs canard_10 write:
    Cm    = 3.87517
    Cd    = 0.445266
    Cl    = 1.72187
    Cl(f) = 4.73611
    Cl(r) = -3.01424

forceCoeffs canard_11 write:
    Cm    = 4.33385
    Cd    = 0.445266
    Cl    = 1.72187
    Cl(f) = 5.19479
    Cl(r) = -3.47292

Time = 30s

smoothSolver:  Solving for Ux, Initial residual = 0.00279344, Final residual = 0.000143755, No Iterations 4
smoothSolver:  Solving for Uy, Initial residual = 0.00195095, Final residual = 0.000103563, No Iterations 4
smoothSolver:  Solving for Uz, Initial residual = 0.0204168, Final residual = 0.000998905, No Iterations 4
GAMG:  Solving for p, Initial residual = 0.021785, Final residual = 0.00186915, No Iterations 2
time step continuity errors : sum local = 0.000317523, global = -2.69932e-05, cumulative = 1.94945e-05
smoothSolver:  Solving for nuTilda, Initial residual = 0.0259594, Final residual = 0.00101581, No Iterations 2
bounding nuTilda, min: -0.0135068 max: 0.0638575 average: 0.0147712
ExecutionTime = 335.123 s  ClockTime = 346 s

forceCoeffs canard_1 write:
    Cm    = -0.252128
    Cd    = 0.450115
    Cl    = 1.73866
    Cl(f) = 0.617202
    Cl(r) = 1.12146

forceCoeffs canard_2 write:
    Cm    = 0.211082
    Cd    = 0.450115
    Cl    = 1.73866
    Cl(f) = 1.08041
    Cl(r) = 0.658248

forceCoeffs canard_3 write:
    Cm    = 0.674292
    Cd    = 0.450115
    Cl    = 1.73866
    Cl(f) = 1.54362
    Cl(r) = 0.195038

forceCoeffs canard_4 write:
    Cm    = 1.1375
    Cd    = 0.450115
    Cl    = 1.73866
    Cl(f) = 2.00683
    Cl(r) = -0.268172

forceCoeffs canard_5 write:
    Cm    = 1.60071
    Cd    = 0.450115
    Cl    = 1.73866
    Cl(f) = 2.47004
    Cl(r) = -0.731382

forceCoeffs canard_6 write:
    Cm    = 2.06392
    Cd    = 0.450115
    Cl    = 1.73866
    Cl(f) = 2.93325
    Cl(r) = -1.19459

forceCoeffs canard_7 write:
    Cm    = 2.52713
    Cd    = 0.450115
    Cl    = 1.73866
    Cl(f) = 3.39646
    Cl(r) = -1.6578

forceCoeffs canard_8 write:
    Cm    = 2.99034
    Cd    = 0.450115
    Cl    = 1.73866
    Cl(f) = 3.85967
    Cl(r) = -2.12101

forceCoeffs canard_9 write:
    Cm    = 3.45355
    Cd    = 0.450115
    Cl    = 1.73866
    Cl(f) = 4.32288
    Cl(r) = -2.58422

forceCoeffs canard_10 write:
    Cm    = 3.91676
    Cd    = 0.450115
    Cl    = 1.73866
    Cl(f) = 4.78609
    Cl(r) = -3.04743

forceCoeffs canard_11 write:
    Cm    = 4.37997
    Cd    = 0.450115
    Cl    = 1.73866
    Cl(f) = 5.2493
    Cl(r) = -3.51064

Time = 31s

smoothSolver:  Solving for Ux, Initial residual = 0.00272745, Final residual = 0.000139431, No Iterations 4
smoothSolver:  Solving for Uy, Initial residual = 0.00196587, Final residual = 0.000102639, No Iterations 4
smoothSolver:  Solving for Uz, Initial residual = 0.0199389, Final residual = 0.000953942, No Iterations 4
GAMG:  Solving for p, Initial residual = 0.0207272, Final residual = 0.00186744, No Iterations 2
time step continuity errors : sum local = 0.000325571, global = -2.39929e-05, cumulative = -4.49842e-06
smoothSolver:  Solving for nuTilda, Initial residual = 0.0259546, Final residual = 0.00102179, No Iterations 2
bounding nuTilda, min: -0.0156398 max: 0.0638575 average: 0.0147562
ExecutionTime = 345.303 s  ClockTime = 356 s

forceCoeffs canard_1 write:
    Cm    = -0.240945
    Cd    = 0.440241
    Cl    = 1.73534
    Cl(f) = 0.626727
    Cl(r) = 1.10862

forceCoeffs canard_2 write:
    Cm    = 0.220382
    Cd    = 0.440241
    Cl    = 1.73534
    Cl(f) = 1.08805
    Cl(r) = 0.64729

forceCoeffs canard_3 write:
    Cm    = 0.68171
    Cd    = 0.440241
    Cl    = 1.73534
    Cl(f) = 1.54938
    Cl(r) = 0.185963

forceCoeffs canard_4 write:
    Cm    = 1.14304
    Cd    = 0.440241
    Cl    = 1.73534
    Cl(f) = 2.01071
    Cl(r) = -0.275365

forceCoeffs canard_5 write:
    Cm    = 1.60436
    Cd    = 0.440241
    Cl    = 1.73534
    Cl(f) = 2.47204
    Cl(r) = -0.736692

forceCoeffs canard_6 write:
    Cm    = 2.06569
    Cd    = 0.440241
    Cl    = 1.73534
    Cl(f) = 2.93336
    Cl(r) = -1.19802

forceCoeffs canard_7 write:
    Cm    = 2.52702
    Cd    = 0.440241
    Cl    = 1.73534
    Cl(f) = 3.39469
    Cl(r) = -1.65935

forceCoeffs canard_8 write:
    Cm    = 2.98835
    Cd    = 0.440241
    Cl    = 1.73534
    Cl(f) = 3.85602
    Cl(r) = -2.12067

forceCoeffs canard_9 write:
    Cm    = 3.44967
    Cd    = 0.440241
    Cl    = 1.73534
    Cl(f) = 4.31735
    Cl(r) = -2.582

forceCoeffs canard_10 write:
    Cm    = 3.911
    Cd    = 0.440241
    Cl    = 1.73534
    Cl(f) = 4.77867
    Cl(r) = -3.04333

forceCoeffs canard_11 write:
    Cm    = 4.37233
    Cd    = 0.440241
    Cl    = 1.73534
    Cl(f) = 5.24
    Cl(r) = -3.50466

Time = 32s

smoothSolver:  Solving for Ux, Initial residual = 0.00266001, Final residual = 0.000133273, No Iterations 4
smoothSolver:  Solving for Uy, Initial residual = 0.00196135, Final residual = 0.000101572, No Iterations 4
smoothSolver:  Solving for Uz, Initial residual = 0.0186166, Final residual = 0.000871314, No Iterations 4
GAMG:  Solving for p, Initial residual = 0.0196016, Final residual = 0.00180843, No Iterations 2
time step continuity errors : sum local = 0.000316022, global = -1.1372e-05, cumulative = -1.58705e-05
smoothSolver:  Solving for nuTilda, Initial residual = 0.026088, Final residual = 0.00101019, No Iterations 2
bounding nuTilda, min: -0.0135148 max: 0.0638575 average: 0.0147422
ExecutionTime = 354.977 s  ClockTime = 366 s

forceCoeffs canard_1 write:
    Cm    = -0.223418
    Cd    = 0.418994
    Cl    = 1.71005
    Cl(f) = 0.631608
    Cl(r) = 1.07844

forceCoeffs canard_2 write:
    Cm    = 0.229542
    Cd    = 0.418994
    Cl    = 1.71005
    Cl(f) = 1.08457
    Cl(r) = 0.625484

forceCoeffs canard_3 write:
    Cm    = 0.682501
    Cd    = 0.418994
    Cl    = 1.71005
    Cl(f) = 1.53753
    Cl(r) = 0.172525

forceCoeffs canard_4 write:
    Cm    = 1.13546
    Cd    = 0.418994
    Cl    = 1.71005
    Cl(f) = 1.99048
    Cl(r) = -0.280435

forceCoeffs canard_5 write:
    Cm    = 1.58842
    Cd    = 0.418994
    Cl    = 1.71005
    Cl(f) = 2.44344
    Cl(r) = -0.733394

forceCoeffs canard_6 write:
    Cm    = 2.04138
    Cd    = 0.418994
    Cl    = 1.71005
    Cl(f) = 2.8964
    Cl(r) = -1.18635

forceCoeffs canard_7 write:
    Cm    = 2.49434
    Cd    = 0.418994
    Cl    = 1.71005
    Cl(f) = 3.34936
    Cl(r) = -1.63931

forceCoeffs canard_8 write:
    Cm    = 2.9473
    Cd    = 0.418994
    Cl    = 1.71005
    Cl(f) = 3.80232
    Cl(r) = -2.09227

forceCoeffs canard_9 write:
    Cm    = 3.40026
    Cd    = 0.418994
    Cl    = 1.71005
    Cl(f) = 4.25528
    Cl(r) = -2.54523

forceCoeffs canard_10 write:
    Cm    = 3.85321
    Cd    = 0.418994
    Cl    = 1.71005
    Cl(f) = 4.70824
    Cl(r) = -2.99819

forceCoeffs canard_11 write:
    Cm    = 4.30617
    Cd    = 0.418994
    Cl    = 1.71005
    Cl(f) = 5.1612
    Cl(r) = -3.45115

Time = 33s

smoothSolver:  Solving for Ux, Initial residual = 0.00260829, Final residual = 0.000128562, No Iterations 4
smoothSolver:  Solving for Uy, Initial residual = 0.00195682, Final residual = 0.000102275, No Iterations 4
smoothSolver:  Solving for Uz, Initial residual = 0.0173847, Final residual = 0.000816671, No Iterations 4
GAMG:  Solving for p, Initial residual = 0.0184626, Final residual = 0.00153306, No Iterations 2
time step continuity errors : sum local = 0.000262931, global = -5.00248e-06, cumulative = -2.08729e-05
smoothSolver:  Solving for nuTilda, Initial residual = 0.0256736, Final residual = 0.00101817, No Iterations 2
bounding nuTilda, min: -0.0137839 max: 0.0638575 average: 0.0147281
ExecutionTime = 364.756 s  ClockTime = 376 s

forceCoeffs canard_1 write:
    Cm    = -0.210303
    Cd    = 0.401324
    Cl    = 1.68321
    Cl(f) = 0.631301
    Cl(r) = 1.05191

forceCoeffs canard_2 write:
    Cm    = 0.234316
    Cd    = 0.401324
    Cl    = 1.68321
    Cl(f) = 1.07592
    Cl(r) = 0.607288

forceCoeffs canard_3 write:
    Cm    = 0.678936
    Cd    = 0.401324
    Cl    = 1.68321
    Cl(f) = 1.52054
    Cl(r) = 0.162669

forceCoeffs canard_4 write:
    Cm    = 1.12356
    Cd    = 0.401324
    Cl    = 1.68321
    Cl(f) = 1.96516
    Cl(r) = -0.281951

forceCoeffs canard_5 write:
    Cm    = 1.56817
    Cd    = 0.401324
    Cl    = 1.68321
    Cl(f) = 2.40978
    Cl(r) = -0.72657

forceCoeffs canard_6 write:
    Cm    = 2.01279
    Cd    = 0.401324
    Cl    = 1.68321
    Cl(f) = 2.8544
    Cl(r) = -1.17119

forceCoeffs canard_7 write:
    Cm    = 2.45741
    Cd    = 0.401324
    Cl    = 1.68321
    Cl(f) = 3.29902
    Cl(r) = -1.61581

forceCoeffs canard_8 write:
    Cm    = 2.90203
    Cd    = 0.401324
    Cl    = 1.68321
    Cl(f) = 3.74364
    Cl(r) = -2.06043

forceCoeffs canard_9 write:
    Cm    = 3.34665
    Cd    = 0.401324
    Cl    = 1.68321
    Cl(f) = 4.18826
    Cl(r) = -2.50505

forceCoeffs canard_10 write:
    Cm    = 3.79127
    Cd    = 0.401324
    Cl    = 1.68321
    Cl(f) = 4.63288
    Cl(r) = -2.94967

forceCoeffs canard_11 write:
    Cm    = 4.23589
    Cd    = 0.401324
    Cl    = 1.68321
    Cl(f) = 5.0775
    Cl(r) = -3.39429

Time = 34s

smoothSolver:  Solving for Ux, Initial residual = 0.00255254, Final residual = 0.000123475, No Iterations 4
smoothSolver:  Solving for Uy, Initial residual = 0.00190409, Final residual = 0.000100639, No Iterations 4
smoothSolver:  Solving for Uz, Initial residual = 0.0164464, Final residual = 0.000794175, No Iterations 4
GAMG:  Solving for p, Initial residual = 0.0178331, Final residual = 0.00144103, No Iterations 2
time step continuity errors : sum local = 0.000241607, global = -9.37082e-07, cumulative = -2.181e-05
smoothSolver:  Solving for nuTilda, Initial residual = 0.0258483, Final residual = 0.00100526, No Iterations 2
bounding nuTilda, min: -0.0135233 max: 0.0638575 average: 0.0147138
ExecutionTime = 374.288 s  ClockTime = 385 s

forceCoeffs canard_1 write:
    Cm    = -0.20576
    Cd    = 0.394135
    Cl    = 1.66849
    Cl(f) = 0.628483
    Cl(r) = 1.04

forceCoeffs canard_2 write:
    Cm    = 0.234563
    Cd    = 0.394135
    Cl    = 1.66849
    Cl(f) = 1.06881
    Cl(r) = 0.599681

forceCoeffs canard_3 write:
    Cm    = 0.674886
    Cd    = 0.394135
    Cl    = 1.66849
    Cl(f) = 1.50913
    Cl(r) = 0.159358

forceCoeffs canard_4 write:
    Cm    = 1.11521
    Cd    = 0.394135
    Cl    = 1.66849
    Cl(f) = 1.94945
    Cl(r) = -0.280965

forceCoeffs canard_5 write:
    Cm    = 1.55553
    Cd    = 0.394135
    Cl    = 1.66849
    Cl(f) = 2.38978
    Cl(r) = -0.721288

forceCoeffs canard_6 write:
    Cm    = 1.99585
    Cd    = 0.394135
    Cl    = 1.66849
    Cl(f) = 2.8301
    Cl(r) = -1.16161

forceCoeffs canard_7 write:
    Cm    = 2.43618
[...]
    Cl(f) = 3.91905
    Cl(r) = -2.63758

Time = 492s

smoothSolver:  Solving for Ux, Initial residual = 5.13126e-05, Final residual = 2.19809e-06, No Iterations 4
smoothSolver:  Solving for Uy, Initial residual = 3.29015e-05, Final residual = 1.52545e-06, No Iterations 4
smoothSolver:  Solving for Uz, Initial residual = 0.000332403, Final residual = 1.65351e-05, No Iterations 4
GAMG:  Solving for p, Initial residual = 0.000740673, Final residual = 3.6886e-05, No Iterations 2
time step continuity errors : sum local = 5.1836e-06, global = -1.73414e-07, cumulative = -0.000486156
smoothSolver:  Solving for nuTilda, Initial residual = 0.0227514, Final residual = 0.00068339, No Iterations 2
bounding nuTilda, min: -0.0139196 max: 0.162766 average: 0.0168643
ExecutionTime = 5323.32 s  ClockTime = 5347 s

forceCoeffs canard_1 write:
    Cm    = -0.238841
    Cd    = 0.424706
    Cl    = 1.2815
    Cl(f) = 0.401911
    Cl(r) = 0.879593

forceCoeffs canard_2 write:
    Cm    = 0.112877
    Cd    = 0.424706
    Cl    = 1.2815
    Cl(f) = 0.75363
    Cl(r) = 0.527875

forceCoeffs canard_3 write:
    Cm    = 0.464596
    Cd    = 0.424706
    Cl    = 1.2815
    Cl(f) = 1.10535
    Cl(r) = 0.176157

forceCoeffs canard_4 write:
    Cm    = 0.816314
    Cd    = 0.424706
    Cl    = 1.2815
    Cl(f) = 1.45707
    Cl(r) = -0.175562

forceCoeffs canard_5 write:
    Cm    = 1.16803
    Cd    = 0.424706
    Cl    = 1.2815
    Cl(f) = 1.80878
    Cl(r) = -0.52728

forceCoeffs canard_6 write:
    Cm    = 1.51975
    Cd    = 0.424706
    Cl    = 1.2815
    Cl(f) = 2.1605
    Cl(r) = -0.878998

forceCoeffs canard_7 write:
    Cm    = 1.87147
    Cd    = 0.424706
    Cl    = 1.2815
    Cl(f) = 2.51222
    Cl(r) = -1.23072

forceCoeffs canard_8 write:
    Cm    = 2.22319
    Cd    = 0.424706
    Cl    = 1.2815
    Cl(f) = 2.86394
    Cl(r) = -1.58243

forceCoeffs canard_9 write:
    Cm    = 2.5749
    Cd    = 0.424706
    Cl    = 1.2815
    Cl(f) = 3.21566
    Cl(r) = -1.93415

forceCoeffs canard_10 write:
    Cm    = 2.92662
    Cd    = 0.424706
    Cl    = 1.2815
    Cl(f) = 3.56738
    Cl(r) = -2.28587

forceCoeffs canard_11 write:
    Cm    = 3.27834
    Cd    = 0.424706
    Cl    = 1.2815
    Cl(f) = 3.91909
    Cl(r) = -2.63759

Time = 493s

smoothSolver:  Solving for Ux, Initial residual = 5.1663e-05, Final residual = 2.19318e-06, No Iterations 4
smoothSolver:  Solving for Uy, Initial residual = 3.29453e-05, Final residual = 1.52878e-06, No Iterations 4
smoothSolver:  Solving for Uz, Initial residual = 0.000332104, Final residual = 1.65613e-05, No Iterations 4
GAMG:  Solving for p, Initial residual = 0.000739909, Final residual = 3.61694e-05, No Iterations 2
time step continuity errors : sum local = 5.08276e-06, global = -1.07716e-08, cumulative = -0.000486166
smoothSolver:  Solving for nuTilda, Initial residual = 0.0226271, Final residual = 0.000697311, No Iterations 2
bounding nuTilda, min: -0.0151729 max: 0.162741 average: 0.0168665
ExecutionTime = 5333.31 s  ClockTime = 5357 s

forceCoeffs canard_1 write:
    Cm    = -0.238906
    Cd    = 0.424658
    Cl    = 1.28156
    Cl(f) = 0.401875
    Cl(r) = 0.879688

forceCoeffs canard_2 write:
    Cm    = 0.11282
    Cd    = 0.424658
    Cl    = 1.28156
    Cl(f) = 0.753602
    Cl(r) = 0.527961

forceCoeffs canard_3 write:
    Cm    = 0.464547
    Cd    = 0.424658
    Cl    = 1.28156
    Cl(f) = 1.10533
    Cl(r) = 0.176234

forceCoeffs canard_4 write:
    Cm    = 0.816274
    Cd    = 0.424658
    Cl    = 1.28156
    Cl(f) = 1.45706
    Cl(r) = -0.175493

forceCoeffs canard_5 write:
    Cm    = 1.168
    Cd    = 0.424658
    Cl    = 1.28156
    Cl(f) = 1.80878
    Cl(r) = -0.52722

forceCoeffs canard_6 write:
    Cm    = 1.51973
    Cd    = 0.424658
    Cl    = 1.28156
    Cl(f) = 2.16051
    Cl(r) = -0.878947

forceCoeffs canard_7 write:
    Cm    = 1.87145
    Cd    = 0.424658
    Cl    = 1.28156
    Cl(f) = 2.51224
    Cl(r) = -1.23067

forceCoeffs canard_8 write:
    Cm    = 2.22318
    Cd    = 0.424658
    Cl    = 1.28156
    Cl(f) = 2.86396
    Cl(r) = -1.5824

forceCoeffs canard_9 write:
    Cm    = 2.57491
    Cd    = 0.424658
    Cl    = 1.28156
    Cl(f) = 3.21569
    Cl(r) = -1.93413

forceCoeffs canard_10 write:
    Cm    = 2.92664
    Cd    = 0.424658
    Cl    = 1.28156
    Cl(f) = 3.56742
    Cl(r) = -2.28585

forceCoeffs canard_11 write:
    Cm    = 3.27836
    Cd    = 0.424658
    Cl    = 1.28156
    Cl(f) = 3.91914
    Cl(r) = -2.63758

Time = 494s

smoothSolver:  Solving for Ux, Initial residual = 5.11491e-05, Final residual = 2.18844e-06, No Iterations 4
smoothSolver:  Solving for Uy, Initial residual = 3.30805e-05, Final residual = 1.53493e-06, No Iterations 4
smoothSolver:  Solving for Uz, Initial residual = 0.000332772, Final residual = 1.66042e-05, No Iterations 4
GAMG:  Solving for p, Initial residual = 0.000734151, Final residual = 3.53994e-05, No Iterations 2
time step continuity errors : sum local = 4.97446e-06, global = -7.54005e-08, cumulative = -0.000486242
smoothSolver:  Solving for nuTilda, Initial residual = 0.0226913, Final residual = 0.000763199, No Iterations 2
bounding nuTilda, min: -0.0138878 max: 0.162716 average: 0.0168651
ExecutionTime = 5343.47 s  ClockTime = 5367 s

forceCoeffs canard_1 write:
    Cm    = -0.23901
    Cd    = 0.424629
    Cl    = 1.28165
    Cl(f) = 0.401813
    Cl(r) = 0.879832

forceCoeffs canard_2 write:
    Cm    = 0.112734
    Cd    = 0.424629
    Cl    = 1.28165
    Cl(f) = 0.753556
    Cl(r) = 0.528089

forceCoeffs canard_3 write:
    Cm    = 0.464477
    Cd    = 0.424629
    Cl    = 1.28165
    Cl(f) = 1.1053
    Cl(r) = 0.176346

forceCoeffs canard_4 write:
    Cm    = 0.81622
    Cd    = 0.424629
    Cl    = 1.28165
    Cl(f) = 1.45704
    Cl(r) = -0.175397

forceCoeffs canard_5 write:
    Cm    = 1.16796
    Cd    = 0.424629
    Cl    = 1.28165
    Cl(f) = 1.80879
    Cl(r) = -0.527141

forceCoeffs canard_6 write:
    Cm    = 1.51971
    Cd    = 0.424629
    Cl    = 1.28165
    Cl(f) = 2.16053
    Cl(r) = -0.878884

forceCoeffs canard_7 write:
    Cm    = 1.87145
    Cd    = 0.424629
    Cl    = 1.28165
    Cl(f) = 2.51227
    Cl(r) = -1.23063

forceCoeffs canard_8 write:
    Cm    = 2.22319
    Cd    = 0.424629
    Cl    = 1.28165
    Cl(f) = 2.86402
    Cl(r) = -1.58237

forceCoeffs canard_9 write:
    Cm    = 2.57494
    Cd    = 0.424629
    Cl    = 1.28165
    Cl(f) = 3.21576
    Cl(r) = -1.93411

forceCoeffs canard_10 write:
    Cm    = 2.92668
    Cd    = 0.424629
    Cl    = 1.28165
    Cl(f) = 3.5675
    Cl(r) = -2.28586

forceCoeffs canard_11 write:
    Cm    = 3.27842
    Cd    = 0.424629
    Cl    = 1.28165
    Cl(f) = 3.91925
    Cl(r) = -2.6376

Time = 495s

smoothSolver:  Solving for Ux, Initial residual = 5.1644e-05, Final residual = 2.18345e-06, No Iterations 4
smoothSolver:  Solving for Uy, Initial residual = 3.31549e-05, Final residual = 1.53915e-06, No Iterations 4
smoothSolver:  Solving for Uz, Initial residual = 0.000333861, Final residual = 1.66174e-05, No Iterations 4
GAMG:  Solving for p, Initial residual = 0.000738501, Final residual = 3.58197e-05, No Iterations 2
time step continuity errors : sum local = 5.03362e-06, global = -3.99789e-08, cumulative = -0.000486282
smoothSolver:  Solving for nuTilda, Initial residual = 0.0227477, Final residual = 0.000694237, No Iterations 2
bounding nuTilda, min: -0.015131 max: 0.16269 average: 0.0168673
ExecutionTime = 5355.13 s  ClockTime = 5379 s

forceCoeffs canard_1 write:
    Cm    = -0.239143
    Cd    = 0.424611
    Cl    = 1.28174
    Cl(f) = 0.401727
    Cl(r) = 0.880012

forceCoeffs canard_2 write:
    Cm    = 0.112621
    Cd    = 0.424611
    Cl    = 1.28174
    Cl(f) = 0.75349
    Cl(r) = 0.528249

forceCoeffs canard_3 write:
    Cm    = 0.464384
    Cd    = 0.424611
    Cl    = 1.28174
    Cl(f) = 1.10525
    Cl(r) = 0.176485

forceCoeffs canard_4 write:
    Cm    = 0.816148
    Cd    = 0.424611
    Cl    = 1.28174
    Cl(f) = 1.45702
    Cl(r) = -0.175278

forceCoeffs canard_5 write:
    Cm    = 1.16791
    Cd    = 0.424611
    Cl    = 1.28174
    Cl(f) = 1.80878
    Cl(r) = -0.527042

forceCoeffs canard_6 write:
    Cm    = 1.51967
    Cd    = 0.424611
    Cl    = 1.28174
    Cl(f) = 2.16054
    Cl(r) = -0.878805

forceCoeffs canard_7 write:
    Cm    = 1.87144
    Cd    = 0.424611
    Cl    = 1.28174
    Cl(f) = 2.51231
    Cl(r) = -1.23057

forceCoeffs canard_8 write:
    Cm    = 2.2232
    Cd    = 0.424611
    Cl    = 1.28174
    Cl(f) = 2.86407
    Cl(r) = -1.58233

forceCoeffs canard_9 write:
    Cm    = 2.57496
    Cd    = 0.424611
    Cl    = 1.28174
    Cl(f) = 3.21583
    Cl(r) = -1.9341

forceCoeffs canard_10 write:
    Cm    = 2.92673
    Cd    = 0.424611
    Cl    = 1.28174
    Cl(f) = 3.5676
    Cl(r) = -2.28586

forceCoeffs canard_11 write:
    Cm    = 3.27849
    Cd    = 0.424611
    Cl    = 1.28174
    Cl(f) = 3.91936
    Cl(r) = -2.63762

Time = 496s

smoothSolver:  Solving for Ux, Initial residual = 5.13846e-05, Final residual = 2.17879e-06, No Iterations 4
smoothSolver:  Solving for Uy, Initial residual = 3.32889e-05, Final residual = 1.54061e-06, No Iterations 4
smoothSolver:  Solving for Uz, Initial residual = 0.000333109, Final residual = 1.66003e-05, No Iterations 4
GAMG:  Solving for p, Initial residual = 0.000740536, Final residual = 3.65042e-05, No Iterations 2
time step continuity errors : sum local = 5.13009e-06, global = -1.60056e-07, cumulative = -0.000486442
smoothSolver:  Solving for nuTilda, Initial residual = 0.0227889, Final residual = 0.000673158, No Iterations 2
bounding nuTilda, min: -0.0139575 max: 0.162663 average: 0.0168659
ExecutionTime = 5365.99 s  ClockTime = 5390 s

forceCoeffs canard_1 write:
    Cm    = -0.239328
    Cd    = 0.424625
    Cl    = 1.28186
    Cl(f) = 0.401603
    Cl(r) = 0.880258

forceCoeffs canard_2 write:
    Cm    = 0.112466
    Cd    = 0.424625
    Cl    = 1.28186
    Cl(f) = 0.753397
    Cl(r) = 0.528464

forceCoeffs canard_3 write:
    Cm    = 0.46426
    Cd    = 0.424625
    Cl    = 1.28186
    Cl(f) = 1.10519
    Cl(r) = 0.17667

forceCoeffs canard_4 write:
    Cm    = 0.816055
    Cd    = 0.424625
    Cl    = 1.28186
    Cl(f) = 1.45699
    Cl(r) = -0.175124

forceCoeffs canard_5 write:
    Cm    = 1.16785
    Cd    = 0.424625
    Cl    = 1.28186
    Cl(f) = 1.80878
    Cl(r) = -0.526918

forceCoeffs canard_6 write:
    Cm    = 1.51964
    Cd    = 0.424625
    Cl    = 1.28186
    Cl(f) = 2.16057
    Cl(r) = -0.878712

forceCoeffs canard_7 write:
    Cm    = 1.87144
    Cd    = 0.424625
    Cl    = 1.28186
    Cl(f) = 2.51237
    Cl(r) = -1.23051

forceCoeffs canard_8 write:
    Cm    = 2.22323
    Cd    = 0.424625
    Cl    = 1.28186
    Cl(f) = 2.86416
    Cl(r) = -1.5823

forceCoeffs canard_9 write:
    Cm    = 2.57503
    Cd    = 0.424625
    Cl    = 1.28186
    Cl(f) = 3.21596
    Cl(r) = -1.93409

forceCoeffs canard_10 write:
    Cm    = 2.92682
    Cd    = 0.424625
    Cl    = 1.28186
    Cl(f) = 3.56775
    Cl(r) = -2.28589

forceCoeffs canard_11 write:
    Cm    = 3.27861
    Cd    = 0.424625
    Cl    = 1.28186
    Cl(f) = 3.91954
    Cl(r) = -2.63768

Time = 497s

smoothSolver:  Solving for Ux, Initial residual = 5.16773e-05, Final residual = 2.17237e-06, No Iterations 4
smoothSolver:  Solving for Uy, Initial residual = 3.32788e-05, Final residual = 1.54215e-06, No Iterations 4
smoothSolver:  Solving for Uz, Initial residual = 0.000333283, Final residual = 1.66034e-05, No Iterations 4
GAMG:  Solving for p, Initial residual = 0.000740875, Final residual = 3.66554e-05, No Iterations 2
time step continuity errors : sum local = 5.15175e-06, global = -9.41461e-09, cumulative = -0.000486451
smoothSolver:  Solving for nuTilda, Initial residual = 0.0225899, Final residual = 0.000672501, No Iterations 2
bounding nuTilda, min: -0.0151936 max: 0.162636 average: 0.016868
ExecutionTime = 5375.78 s  ClockTime = 5399 s

forceCoeffs canard_1 write:
    Cm    = -0.239562
    Cd    = 0.424644
    Cl    = 1.28201
    Cl(f) = 0.401441
    Cl(r) = 0.880566

forceCoeffs canard_2 write:
    Cm    = 0.112268
    Cd    = 0.424644
    Cl    = 1.28201
    Cl(f) = 0.753271
    Cl(r) = 0.528735

forceCoeffs canard_3 write:
    Cm    = 0.464099
    Cd    = 0.424644
    Cl    = 1.28201
    Cl(f) = 1.1051
    Cl(r) = 0.176904

forceCoeffs canard_4 write:
    Cm    = 0.81593
    Cd    = 0.424644
    Cl    = 1.28201
    Cl(f) = 1.45693
    Cl(r) = -0.174926

forceCoeffs canard_5 write:
    Cm    = 1.16776
    Cd    = 0.424644
    Cl    = 1.28201
    Cl(f) = 1.80876
    Cl(r) = -0.526757

forceCoeffs canard_6 write:
    Cm    = 1.51959
    Cd    = 0.424644
    Cl    = 1.28201
    Cl(f) = 2.16059
    Cl(r) = -0.878588

forceCoeffs canard_7 write:
    Cm    = 1.87142
    Cd    = 0.424644
    Cl    = 1.28201
    Cl(f) = 2.51242
    Cl(r) = -1.23042

forceCoeffs canard_8 write:
    Cm    = 2.22325
    Cd    = 0.424644
    Cl    = 1.28201
    Cl(f) = 2.86426
    Cl(r) = -1.58225

forceCoeffs canard_9 write:
    Cm    = 2.57508
    Cd    = 0.424644
    Cl    = 1.28201
    Cl(f) = 3.21609
    Cl(r) = -1.93408

forceCoeffs canard_10 write:
    Cm    = 2.92691
    Cd    = 0.424644
    Cl    = 1.28201
    Cl(f) = 3.56792
    Cl(r) = -2.28591

forceCoeffs canard_11 write:
    Cm    = 3.27874
    Cd    = 0.424644
    Cl    = 1.28201
    Cl(f) = 3.91975
    Cl(r) = -2.63774

Time = 498s

smoothSolver:  Solving for Ux, Initial residual = 5.14504e-05, Final residual = 2.16667e-06, No Iterations 4
smoothSolver:  Solving for Uy, Initial residual = 3.33602e-05, Final residual = 1.54801e-06, No Iterations 4
smoothSolver:  Solving for Uz, Initial residual = 0.000333892, Final residual = 1.66633e-05, No Iterations 4
GAMG:  Solving for p, Initial residual = 0.000733289, Final residual = 3.76056e-05, No Iterations 2
time step continuity errors : sum local = 5.28585e-06, global = -1.38286e-07, cumulative = -0.000486589
smoothSolver:  Solving for nuTilda, Initial residual = 0.0226851, Final residual = 0.000700134, No Iterations 2
bounding nuTilda, min: -0.0139588 max: 0.162608 average: 0.0168666
ExecutionTime = 5385.38 s  ClockTime = 5409 s

forceCoeffs canard_1 write:
    Cm    = -0.239844
    Cd    = 0.424686
    Cl    = 1.28217
    Cl(f) = 0.401241
    Cl(r) = 0.880929

forceCoeffs canard_2 write:
    Cm    = 0.11203
    Cd    = 0.424686
    Cl    = 1.28217
    Cl(f) = 0.753115
    Cl(r) = 0.529055

forceCoeffs canard_3 write:
    Cm    = 0.463905
    Cd    = 0.424686
    Cl    = 1.28217
    Cl(f) = 1.10499
    Cl(r) = 0.17718

forceCoeffs canard_4 write:
    Cm    = 0.815779
    Cd    = 0.424686
    Cl    = 1.28217
    Cl(f) = 1.45686
    Cl(r) = -0.174694

forceCoeffs canard_5 write:
    Cm    = 1.16765
    Cd    = 0.424686
    Cl    = 1.28217
    Cl(f) = 1.80874
    Cl(r) = -0.526568

forceCoeffs canard_6 write:
    Cm    = 1.51953
    Cd    = 0.424686
    Cl    = 1.28217
    Cl(f) = 2.16061
    Cl(r) = -0.878443

forceCoeffs canard_7 write:
    Cm    = 1.8714
    Cd    = 0.424686
    Cl    = 1.28217
    Cl(f) = 2.51249
    Cl(r) = -1.23032

forceCoeffs canard_8 write:
    Cm    = 2.22328
    Cd    = 0.424686
    Cl    = 1.28217
    Cl(f) = 2.86436
    Cl(r) = -1.58219

forceCoeffs canard_9 write:
    Cm    = 2.57515
    Cd    = 0.424686
    Cl    = 1.28217
    Cl(f) = 3.21624
    Cl(r) = -1.93407

forceCoeffs canard_10 write:
    Cm    = 2.92703
    Cd    = 0.424686
    Cl    = 1.28217
    Cl(f) = 3.56811
    Cl(r) = -2.28594

forceCoeffs canard_11 write:
    Cm    = 3.2789
    Cd    = 0.424686
    Cl    = 1.28217
    Cl(f) = 3.91998
    Cl(r) = -2.63781

Time = 499s

smoothSolver:  Solving for Ux, Initial residual = 5.15043e-05, Final residual = 2.15981e-06, No Iterations 4
smoothSolver:  Solving for Uy, Initial residual = 3.33526e-05, Final residual = 1.55407e-06, No Iterations 4
smoothSolver:  Solving for Uz, Initial residual = 0.000335027, Final residual = 1.67457e-05, No Iterations 4
GAMG:  Solving for p, Initial residual = 0.000731877, Final residual = 3.79035e-05, No Iterations 2
time step continuity errors : sum local = 5.32837e-06, global = -1.76982e-07, cumulative = -0.000486766
smoothSolver:  Solving for nuTilda, Initial residual = 0.0225524, Final residual = 0.000752889, No Iterations 2
bounding nuTilda, min: -0.015137 max: 0.162579 average: 0.0168688
ExecutionTime = 5395.24 s  ClockTime = 5419 s

forceCoeffs canard_1 write:
    Cm    = -0.240137
    Cd    = 0.42473
    Cl    = 1.28233
    Cl(f) = 0.401027
    Cl(r) = 0.881302

forceCoeffs canard_2 write:
    Cm    = 0.11178
    Cd    = 0.42473
    Cl    = 1.28233
    Cl(f) = 0.752944
    Cl(r) = 0.529385

forceCoeffs canard_3 write:
    Cm    = 0.463696
    Cd    = 0.42473
    Cl    = 1.28233
    Cl(f) = 1.10486
    Cl(r) = 0.177468

forceCoeffs canard_4 write:
    Cm    = 0.815613
    Cd    = 0.42473
    Cl    = 1.28233
    Cl(f) = 1.45678
    Cl(r) = -0.174449

forceCoeffs canard_5 write:
    Cm    = 1.16753
    Cd    = 0.42473
    Cl    = 1.28233
    Cl(f) = 1.80869
    Cl(r) = -0.526366

forceCoeffs canard_6 write:
    Cm    = 1.51945
    Cd    = 0.42473
    Cl    = 1.28233
    Cl(f) = 2.16061
    Cl(r) = -0.878283

forceCoeffs canard_7 write:
    Cm    = 1.87136
    Cd    = 0.42473
    Cl    = 1.28233
    Cl(f) = 2.51253
    Cl(r) = -1.2302

forceCoeffs canard_8 write:
    Cm    = 2.22328
    Cd    = 0.42473
    Cl    = 1.28233
    Cl(f) = 2.86445
    Cl(r) = -1.58212

forceCoeffs canard_9 write:
    Cm    = 2.5752
    Cd    = 0.42473
    Cl    = 1.28233
    Cl(f) = 3.21636
    Cl(r) = -1.93403

forceCoeffs canard_10 write:
    Cm    = 2.92711
    Cd    = 0.42473
    Cl    = 1.28233
    Cl(f) = 3.56828
    Cl(r) = -2.28595

forceCoeffs canard_11 write:
    Cm    = 3.27903
    Cd    = 0.42473
    Cl    = 1.28233
    Cl(f) = 3.9202
    Cl(r) = -2.63787

Time = 500s

smoothSolver:  Solving for Ux, Initial residual = 5.09864e-05, Final residual = 2.1528e-06, No Iterations 4
smoothSolver:  Solving for Uy, Initial residual = 3.34065e-05, Final residual = 1.55805e-06, No Iterations 4
smoothSolver:  Solving for Uz, Initial residual = 0.000335177, Final residual = 1.68074e-05, No Iterations 4
GAMG:  Solving for p, Initial residual = 0.000741205, Final residual = 3.86205e-05, No Iterations 2
time step continuity errors : sum local = 5.4298e-06, global = -3.16577e-07, cumulative = -0.000487083
smoothSolver:  Solving for nuTilda, Initial residual = 0.0225964, Final residual = 0.000705116, No Iterations 2
bounding nuTilda, min: -0.0141439 max: 0.16255 average: 0.0168673
ExecutionTime = 5412.51 s  ClockTime = 5436 s

forceCoeffs canard_1 write:
    Cm    = -0.240451
    Cd    = 0.42478
    Cl    = 1.2825
    Cl(f) = 0.400799
    Cl(r) = 0.8817

forceCoeffs canard_2 write:
    Cm    = 0.111512
    Cd    = 0.42478
    Cl    = 1.2825
    Cl(f) = 0.752762
    Cl(r) = 0.529737

forceCoeffs canard_3 write:
    Cm    = 0.463475
    Cd    = 0.42478
    Cl    = 1.2825
    Cl(f) = 1.10472
    Cl(r) = 0.177774

forceCoeffs canard_4 write:
    Cm    = 0.815438
    Cd    = 0.42478
    Cl    = 1.2825
    Cl(f) = 1.45669
    Cl(r) = -0.174189

forceCoeffs canard_5 write:
    Cm    = 1.1674
    Cd    = 0.42478
    Cl    = 1.2825
    Cl(f) = 1.80865
    Cl(r) = -0.526152

forceCoeffs canard_6 write:
    Cm    = 1.51936
    Cd    = 0.42478
    Cl    = 1.2825
    Cl(f) = 2.16061
    Cl(r) = -0.878115

forceCoeffs canard_7 write:
    Cm    = 1.87133
    Cd    = 0.42478
    Cl    = 1.2825
    Cl(f) = 2.51258
    Cl(r) = -1.23008

forceCoeffs canard_8 write:
    Cm    = 2.22329
    Cd    = 0.42478
    Cl    = 1.2825
    Cl(f) = 2.86454
    Cl(r) = -1.58204

forceCoeffs canard_9 write:
    Cm    = 2.57525
    Cd    = 0.42478
    Cl    = 1.2825
    Cl(f) = 3.2165
    Cl(r) = -1.934

forceCoeffs canard_10 write:
    Cm    = 2.92722
    Cd    = 0.42478
    Cl    = 1.2825
    Cl(f) = 3.56847
    Cl(r) = -2.28597

forceCoeffs canard_11 write:
    Cm    = 3.27918
    Cd    = 0.42478
    Cl    = 1.2825
    Cl(f) = 3.92043
    Cl(r) = -2.63793

End

Finalising parallel run
