
simpleFoam has been superseded and replaced by the more general
incompressibleFluid solver module executed by the foamRun application:

    foamRun -solver incompressibleFluid


simpleFoam has been superseded and replaced by the more general
incompressibleFluid solver module executed by the foamRun application:

    foamRun -solver incompressibleFluid


simpleFoam has been superseded and replaced by the more general
incompressibleFluid solver module executed by the foamRun application:

    foamRun -solver incompressibleFluid

/*---------------------------------------------------------------------------*\
  =========                 |
  \\      /  F ield         | OpenFOAM: The Open Source CFD Toolbox
   \\    /   O peration     | Website:  https://openfoam.org
    \\  /    A nd           | Version:  12
     \\/     M anipulation  |
\*---------------------------------------------------------------------------*/
Build  : 12-86e126a7bc4d
Exec   : foamRun -solver incompressibleFluid -parallel
Date   : Jun 24 2025
Time   : 06:48:35
Host   : "EmiAlamilla"
PID    : 113527
I/O    : uncollated
Case   : /home/emilianoalamilla/CFD/Aircraft/AoA_20
nProcs : 3
Slaves : 
2
(
"EmiAlamilla.113529"
"EmiAlamilla.113531"
)

Pstream initialised with:
    floatTransfer      : false
    nProcsSimpleSum    : 0
    commsType          : nonBlocking
    polling iterations : 0
sigFpe : Enabling floating point exception trapping (FOAM_SIGFPE).
fileModificationChecking : Monitoring run-time modified files using timeStampMaster (fileModificationSkew 10)
allowSystemOperations : Allowing user-supplied system call operations

// * * * * * * * * * * * * * * * * * * * * * * * * * * * * * * * * * * * * * //
Create time

Create mesh for time = 0

Selecting solver incompressibleFluid
Selecting viscosity model constant
Selecting turbulence model type RAS
Selecting RAS turbulence model SpalartAllmaras
RAS
{
    RASModel        SpalartAllmaras;
    turbulence      on;
    printCoeffs     on;
    sigmaNut        0.66666;
    kappa           0.41;
    Cb1             0.1355;
    Cb2             0.622;
    Cw2             0.3;
    Cw3             2;
    Cv1             7.1;
    Cs              0.3;
}

No MRF models present


SIMPLE: Convergence criteria found
        p: tolerance 1e-05
        U: tolerance 1e-05
        nuTilda: tolerance 1e-05


SIMPLE: Operating solver in steady-state mode with 1 outer corrector
SIMPLE: Operating solver in SIMPLE mode



Starting time loop

forcesBase canard_1:
    Not including porosity effects
forces canard_1:
    Not including porosity effects
forceCoeffs canard_1:
    Not including porosity effects
forcesBase canard_2:
    Not including porosity effects
forces canard_2:
    Not including porosity effects
forceCoeffs canard_2:
    Not including porosity effects
forcesBase canard_3:
    Not including porosity effects
forces canard_3:
    Not including porosity effects
forceCoeffs canard_3:
    Not including porosity effects
forcesBase canard_4:
    Not including porosity effects
forces canard_4:
    Not including porosity effects
forceCoeffs canard_4:
    Not including porosity effects
forcesBase canard_5:
    Not including porosity effects
forces canard_5:
    Not including porosity effects
forceCoeffs canard_5:
    Not including porosity effects
forcesBase canard_6:
    Not including porosity effects
forces canard_6:
    Not including porosity effects
forceCoeffs canard_6:
    Not including porosity effects
forcesBase canard_7:
    Not including porosity effects
forces canard_7:
    Not including porosity effects
forceCoeffs canard_7:
    Not including porosity effects
forcesBase canard_8:
    Not including porosity effects
forces canard_8:
    Not including porosity effects
forceCoeffs canard_8:
    Not including porosity effects
forcesBase canard_9:
    Not including porosity effects
forces canard_9:
    Not including porosity effects
forceCoeffs canard_9:
    Not including porosity effects
forcesBase canard_10:
    Not including porosity effects
forces canard_10:
    Not including porosity effects
forceCoeffs canard_10:
    Not including porosity effects
forcesBase canard_11:
    Not including porosity effects
forces canard_11:
    Not including porosity effects
forceCoeffs canard_11:
    Not including porosity effects
forceCoeffs canard_1 write:
    Cm    = -0.000757559
    Cd    = 0.00659225
    Cl    = 0.000486142
    Cl(f) = -0.000514488
    Cl(r) = 0.00100063

forceCoeffs canard_2 write:
    Cm    = -4.63434e-05
    Cd    = 0.00659225
    Cl    = 0.000486142
    Cl(f) = 0.000196728
    Cl(r) = 0.000289415

forceCoeffs canard_3 write:
    Cm    = 0.000664872
    Cd    = 0.00659225
    Cl    = 0.000486142
    Cl(f) = 0.000907943
    Cl(r) = -0.000421801

forceCoeffs canard_4 write:
    Cm    = 0.00137609
    Cd    = 0.00659225
    Cl    = 0.000486142
    Cl(f) = 0.00161916
    Cl(r) = -0.00113302

forceCoeffs canard_5 write:
    Cm    = 0.0020873
    Cd    = 0.00659225
    Cl    = 0.000486142
    Cl(f) = 0.00233037
    Cl(r) = -0.00184423

forceCoeffs canard_6 write:
    Cm    = 0.00279852
    Cd    = 0.00659225
    Cl    = 0.000486142
    Cl(f) = 0.00304159
    Cl(r) = -0.00255545

forceCoeffs canard_7 write:
    Cm    = 0.00350973
    Cd    = 0.00659225
    Cl    = 0.000486142
    Cl(f) = 0.0037528
    Cl(r) = -0.00326666

forceCoeffs canard_8 write:
    Cm    = 0.00422095
    Cd    = 0.00659225
    Cl    = 0.000486142
    Cl(f) = 0.00446402
    Cl(r) = -0.00397788

forceCoeffs canard_9 write:
    Cm    = 0.00493216
    Cd    = 0.00659225
    Cl    = 0.000486142
    Cl(f) = 0.00517524
    Cl(r) = -0.00468909

forceCoeffs canard_10 write:
    Cm    = 0.00564338
    Cd    = 0.00659225
    Cl    = 0.000486142
    Cl(f) = 0.00588645
    Cl(r) = -0.00540031

forceCoeffs canard_11 write:
    Cm    = 0.00635459
    Cd    = 0.00659225
    Cl    = 0.000486142
    Cl(f) = 0.00659767
    Cl(r) = -0.00611152

Time = 1s

smoothSolver:  Solving for Ux, Initial residual = 1, Final residual = 0.0504026, No Iterations 4
smoothSolver:  Solving for Uy, Initial residual = 1, Final residual = 0.0214063, No Iterations 4
smoothSolver:  Solving for Uz, Initial residual = 1, Final residual = 0.0244901, No Iterations 4
GAMG:  Solving for p, Initial residual = 1, Final residual = 0.0854722, No Iterations 5
time step continuity errors : sum local = 0.000722258, global = -4.69424e-06, cumulative = -4.69424e-06
Selecting patchDistMethod meshWave
smoothSolver:  Solving for nuTilda, Initial residual = 1, Final residual = 0.0256966, No Iterations 2
ExecutionTime = 22.227 s  ClockTime = 23 s

forceCoeffs canard_1 write:
    Cm    = -8.83356
    Cd    = 9.43329
    Cl    = 17.7832
    Cl(f) = 0.0580196
    Cl(r) = 17.7251

forceCoeffs canard_2 write:
    Cm    = -3.60416
    Cd    = 9.43329
    Cl    = 17.7832
    Cl(f) = 5.28742
    Cl(r) = 12.4957

forceCoeffs canard_3 write:
    Cm    = 1.62524
    Cd    = 9.43329
    Cl    = 17.7832
    Cl(f) = 10.5168
    Cl(r) = 7.26635

forceCoeffs canard_4 write:
    Cm    = 6.85463
    Cd    = 9.43329
    Cl    = 17.7832
    Cl(f) = 15.7462
    Cl(r) = 2.03695

forceCoeffs canard_5 write:
    Cm    = 12.084
    Cd    = 9.43329
    Cl    = 17.7832
    Cl(f) = 20.9756
    Cl(r) = -3.19245

forceCoeffs canard_6 write:
    Cm    = 17.3134
    Cd    = 9.43329
    Cl    = 17.7832
    Cl(f) = 26.205
    Cl(r) = -8.42185

forceCoeffs canard_7 write:
    Cm    = 22.5428
    Cd    = 9.43329
    Cl    = 17.7832
    Cl(f) = 31.4344
    Cl(r) = -13.6512

forceCoeffs canard_8 write:
    Cm    = 27.7722
    Cd    = 9.43329
    Cl    = 17.7832
    Cl(f) = 36.6638
    Cl(r) = -18.8806

forceCoeffs canard_9 write:
    Cm    = 33.0016
    Cd    = 9.43329
    Cl    = 17.7832
    Cl(f) = 41.8932
    Cl(r) = -24.11

forceCoeffs canard_10 write:
    Cm    = 38.231
    Cd    = 9.43329
    Cl    = 17.7832
    Cl(f) = 47.1226
    Cl(r) = -29.3394

forceCoeffs canard_11 write:
    Cm    = 43.4604
    Cd    = 9.43329
    Cl    = 17.7832
    Cl(f) = 52.352
    Cl(r) = -34.5688

Time = 2s

smoothSolver:  Solving for Ux, Initial residual = 0.184879, Final residual = 0.0124325, No Iterations 4
smoothSolver:  Solving for Uy, Initial residual = 0.0773377, Final residual = 0.00551903, No Iterations 4
smoothSolver:  Solving for Uz, Initial residual = 0.627295, Final residual = 0.0421094, No Iterations 4
GAMG:  Solving for p, Initial residual = 0.338047, Final residual = 0.0166064, No Iterations 3
time step continuity errors : sum local = 0.00120221, global = 2.24656e-07, cumulative = -4.46958e-06
smoothSolver:  Solving for nuTilda, Initial residual = 0.110772, Final residual = 0.004828, No Iterations 2
ExecutionTime = 31.829 s  ClockTime = 32 s

forceCoeffs canard_1 write:
    Cm    = -5.69637
    Cd    = 6.04107
    Cl    = 11.9851
    Cl(f) = 0.296192
    Cl(r) = 11.6889

forceCoeffs canard_2 write:
    Cm    = -2.20037
    Cd    = 6.04107
    Cl    = 11.9851
    Cl(f) = 3.79219
    Cl(r) = 8.19293

forceCoeffs canard_3 write:
    Cm    = 1.29563
    Cd    = 6.04107
    Cl    = 11.9851
    Cl(f) = 7.28819
    Cl(r) = 4.69693

forceCoeffs canard_4 write:
    Cm    = 4.79163
    Cd    = 6.04107
    Cl    = 11.9851
    Cl(f) = 10.7842
    Cl(r) = 1.20093

forceCoeffs canard_5 write:
    Cm    = 8.28763
    Cd    = 6.04107
    Cl    = 11.9851
    Cl(f) = 14.2802
    Cl(r) = -2.29507

forceCoeffs canard_6 write:
    Cm    = 11.7836
    Cd    = 6.04107
    Cl    = 11.9851
    Cl(f) = 17.7762
    Cl(r) = -5.79107

forceCoeffs canard_7 write:
    Cm    = 15.2796
    Cd    = 6.04107
    Cl    = 11.9851
    Cl(f) = 21.2722
    Cl(r) = -9.28707

forceCoeffs canard_8 write:
    Cm    = 18.7756
    Cd    = 6.04107
    Cl    = 11.9851
    Cl(f) = 24.7682
    Cl(r) = -12.7831

forceCoeffs canard_9 write:
    Cm    = 22.2716
    Cd    = 6.04107
    Cl    = 11.9851
    Cl(f) = 28.2642
    Cl(r) = -16.2791

forceCoeffs canard_10 write:
    Cm    = 25.7676
    Cd    = 6.04107
    Cl    = 11.9851
    Cl(f) = 31.7602
    Cl(r) = -19.7751

forceCoeffs canard_11 write:
    Cm    = 29.2636
    Cd    = 6.04107
    Cl    = 11.9851
    Cl(f) = 35.2562
    Cl(r) = -23.2711

Time = 3s

smoothSolver:  Solving for Ux, Initial residual = 0.0375939, Final residual = 0.00252183, No Iterations 4
smoothSolver:  Solving for Uy, Initial residual = 0.010988, Final residual = 0.000779878, No Iterations 4
smoothSolver:  Solving for Uz, Initial residual = 0.270421, Final residual = 0.0179128, No Iterations 4
GAMG:  Solving for p, Initial residual = 0.54462, Final residual = 0.0395696, No Iterations 3
time step continuity errors : sum local = 0.00290117, global = 3.52647e-05, cumulative = 3.07951e-05
smoothSolver:  Solving for nuTilda, Initial residual = 0.063937, Final residual = 0.00302181, No Iterations 2
bounding nuTilda, min: -0.000479371 max: 0.0602134 average: 0.0191564
ExecutionTime = 41.6957 s  ClockTime = 42 s

forceCoeffs canard_1 write:
    Cm    = 0.886019
    Cd    = -0.764799
    Cl    = -0.457986
    Cl(f) = 0.657026
    Cl(r) = -1.11501

forceCoeffs canard_2 write:
    Cm    = 0.704525
    Cd    = -0.764799
    Cl    = -0.457986
    Cl(f) = 0.475532
    Cl(r) = -0.933519

forceCoeffs canard_3 write:
    Cm    = 0.523032
    Cd    = -0.764799
    Cl    = -0.457986
    Cl(f) = 0.294039
    Cl(r) = -0.752025

forceCoeffs canard_4 write:
    Cm    = 0.341539
    Cd    = -0.764799
    Cl    = -0.457986
    Cl(f) = 0.112546
    Cl(r) = -0.570532

forceCoeffs canard_5 write:
    Cm    = 0.160046
    Cd    = -0.764799
    Cl    = -0.457986
    Cl(f) = -0.0689475
    Cl(r) = -0.389039

forceCoeffs canard_6 write:
    Cm    = -0.0214476
    Cd    = -0.764799
    Cl    = -0.457986
    Cl(f) = -0.250441
    Cl(r) = -0.207546

forceCoeffs canard_7 write:
    Cm    = -0.202941
    Cd    = -0.764799
    Cl    = -0.457986
    Cl(f) = -0.431934
    Cl(r) = -0.0260523

forceCoeffs canard_8 write:
    Cm    = -0.384434
    Cd    = -0.764799
    Cl    = -0.457986
    Cl(f) = -0.613427
    Cl(r) = 0.155441

forceCoeffs canard_9 write:
    Cm    = -0.565927
    Cd    = -0.764799
    Cl    = -0.457986
    Cl(f) = -0.794921
    Cl(r) = 0.336934

forceCoeffs canard_10 write:
    Cm    = -0.747421
    Cd    = -0.764799
    Cl    = -0.457986
    Cl(f) = -0.976414
    Cl(r) = 0.518427

forceCoeffs canard_11 write:
    Cm    = -0.928914
    Cd    = -0.764799
    Cl    = -0.457986
    Cl(f) = -1.15791
    Cl(r) = 0.699921

Time = 4s

smoothSolver:  Solving for Ux, Initial residual = 0.0129129, Final residual = 0.000732571, No Iterations 4
smoothSolver:  Solving for Uy, Initial residual = 0.0031902, Final residual = 0.000195517, No Iterations 4
smoothSolver:  Solving for Uz, Initial residual = 0.107531, Final residual = 0.00629515, No Iterations 4
GAMG:  Solving for p, Initial residual = 0.171662, Final residual = 0.0122437, No Iterations 3
time step continuity errors : sum local = 0.00195146, global = 3.15583e-05, cumulative = 6.23534e-05
smoothSolver:  Solving for nuTilda, Initial residual = 0.0554723, Final residual = 0.00247762, No Iterations 2
bounding nuTilda, min: -0.00112576 max: 0.0602134 average: 0.0182396
ExecutionTime = 53.1531 s  ClockTime = 54 s

forceCoeffs canard_1 write:
    Cm    = 4.03847
    Cd    = -4.07218
    Cl    = -6.81703
    Cl(f) = 0.629954
    Cl(r) = -7.44698

forceCoeffs canard_2 write:
    Cm    = 1.99291
    Cd    = -4.07218
    Cl    = -6.81703
    Cl(f) = -1.4156
    Cl(r) = -5.40143

forceCoeffs canard_3 write:
    Cm    = -0.0526426
    Cd    = -4.07218
    Cl    = -6.81703
    Cl(f) = -3.46116
    Cl(r) = -3.35587

forceCoeffs canard_4 write:
    Cm    = -2.0982
    Cd    = -4.07218
    Cl    = -6.81703
    Cl(f) = -5.50671
    Cl(r) = -1.31032

forceCoeffs canard_5 write:
    Cm    = -4.14375
    Cd    = -4.07218
    Cl    = -6.81703
    Cl(f) = -7.55227
    Cl(r) = 0.735239

forceCoeffs canard_6 write:
    Cm    = -6.18931
    Cd    = -4.07218
    Cl    = -6.81703
    Cl(f) = -9.59783
    Cl(r) = 2.78079

forceCoeffs canard_7 write:
    Cm    = -8.23487
    Cd    = -4.07218
    Cl    = -6.81703
    Cl(f) = -11.6434
    Cl(r) = 4.82635

forceCoeffs canard_8 write:
    Cm    = -10.2804
    Cd    = -4.07218
    Cl    = -6.81703
    Cl(f) = -13.6889
    Cl(r) = 6.87191

forceCoeffs canard_9 write:
    Cm    = -12.326
    Cd    = -4.07218
    Cl    = -6.81703
    Cl(f) = -15.7345
    Cl(r) = 8.91746

forceCoeffs canard_10 write:
    Cm    = -14.3715
    Cd    = -4.07218
    Cl    = -6.81703
    Cl(f) = -17.78
    Cl(r) = 10.963

forceCoeffs canard_11 write:
    Cm    = -16.4171
    Cd    = -4.07218
    Cl    = -6.81703
    Cl(f) = -19.8256
    Cl(r) = 13.0086

Time = 5s

smoothSolver:  Solving for Ux, Initial residual = 0.0209552, Final residual = 0.00131447, No Iterations 4
smoothSolver:  Solving for Uy, Initial residual = 0.00713568, Final residual = 0.000490398, No Iterations 4
smoothSolver:  Solving for Uz, Initial residual = 0.142745, Final residual = 0.00914216, No Iterations 4
GAMG:  Solving for p, Initial residual = 0.0905865, Final residual = 0.00524487, No Iterations 3
time step continuity errors : sum local = 0.00150708, global = 3.76576e-05, cumulative = 0.000100011
smoothSolver:  Solving for nuTilda, Initial residual = 0.0492561, Final residual = 0.00209195, No Iterations 2
bounding nuTilda, min: -0.000296455 max: 0.0602134 average: 0.0175873
ExecutionTime = 64.4261 s  ClockTime = 65 s

forceCoeffs canard_1 write:
    Cm    = 2.36741
    Cd    = -2.45685
    Cl    = -4.15224
    Cl(f) = 0.291289
    Cl(r) = -4.44353

forceCoeffs canard_2 write:
    Cm    = 1.12357
    Cd    = -2.45685
    Cl    = -4.15224
    Cl(f) = -0.952546
    Cl(r) = -3.19969

forceCoeffs canard_3 write:
    Cm    = -0.120262
    Cd    = -2.45685
    Cl    = -4.15224
    Cl(f) = -2.19638
    Cl(r) = -1.95586

forceCoeffs canard_4 write:
    Cm    = -1.3641
    Cd    = -2.45685
    Cl    = -4.15224
    Cl(f) = -3.44022
    Cl(r) = -0.712023

forceCoeffs canard_5 write:
    Cm    = -2.60793
    Cd    = -2.45685
    Cl    = -4.15224
    Cl(f) = -4.68405
    Cl(r) = 0.531813

forceCoeffs canard_6 write:
    Cm    = -3.85177
    Cd    = -2.45685
    Cl    = -4.15224
    Cl(f) = -5.92789
    Cl(r) = 1.77565

forceCoeffs canard_7 write:
    Cm    = -5.0956
    Cd    = -2.45685
    Cl    = -4.15224
    Cl(f) = -7.17172
    Cl(r) = 3.01948

forceCoeffs canard_8 write:
    Cm    = -6.33944
    Cd    = -2.45685
    Cl    = -4.15224
    Cl(f) = -8.41556
    Cl(r) = 4.26332

forceCoeffs canard_9 write:
    Cm    = -7.58328
    Cd    = -2.45685
    Cl    = -4.15224
    Cl(f) = -9.6594
    Cl(r) = 5.50715

forceCoeffs canard_10 write:
    Cm    = -8.82711
    Cd    = -2.45685
    Cl    = -4.15224
    Cl(f) = -10.9032
    Cl(r) = 6.75099

forceCoeffs canard_11 write:
    Cm    = -10.0709
    Cd    = -2.45685
    Cl    = -4.15224
    Cl(f) = -12.1471
    Cl(r) = 7.99483

Time = 6s

smoothSolver:  Solving for Ux, Initial residual = 0.0406603, Final residual = 0.00261154, No Iterations 4
smoothSolver:  Solving for Uy, Initial residual = 0.0142311, Final residual = 0.000970335, No Iterations 4
smoothSolver:  Solving for Uz, Initial residual = 0.185326, Final residual = 0.012085, No Iterations 4
GAMG:  Solving for p, Initial residual = 0.121975, Final residual = 0.00662667, No Iterations 3
time step continuity errors : sum local = 0.00170118, global = -5.36815e-07, cumulative = 9.94742e-05
smoothSolver:  Solving for nuTilda, Initial residual = 0.0482082, Final residual = 0.00189693, No Iterations 2
bounding nuTilda, min: -0.00011719 max: 0.0602134 average: 0.0170783
ExecutionTime = 74.845 s  ClockTime = 75 s

forceCoeffs canard_1 write:
    Cm    = -0.970579
    Cd    = 0.88226
    Cl    = 1.84265
    Cl(f) = -0.0492543
    Cl(r) = 1.8919

forceCoeffs canard_2 write:
    Cm    = -0.437261
    Cd    = 0.88226
    Cl    = 1.84265
    Cl(f) = 0.484064
    Cl(r) = 1.35859

forceCoeffs canard_3 write:
    Cm    = 0.096057
    Cd    = 0.88226
    Cl    = 1.84265
    Cl(f) = 1.01738
    Cl(r) = 0.825268

forceCoeffs canard_4 write:
    Cm    = 0.629375
    Cd    = 0.88226
    Cl    = 1.84265
    Cl(f) = 1.5507
    Cl(r) = 0.29195

forceCoeffs canard_5 write:
    Cm    = 1.16269
    Cd    = 0.88226
    Cl    = 1.84265
    Cl(f) = 2.08402
    Cl(r) = -0.241368

forceCoeffs canard_6 write:
    Cm    = 1.69601
    Cd    = 0.88226
    Cl    = 1.84265
    Cl(f) = 2.61734
    Cl(r) = -0.774686

forceCoeffs canard_7 write:
    Cm    = 2.22933
    Cd    = 0.88226
    Cl    = 1.84265
    Cl(f) = 3.15065
    Cl(r) = -1.308

forceCoeffs canard_8 write:
    Cm    = 2.76265
    Cd    = 0.88226
    Cl    = 1.84265
    Cl(f) = 3.68397
    Cl(r) = -1.84132

forceCoeffs canard_9 write:
    Cm    = 3.29596
    Cd    = 0.88226
    Cl    = 1.84265
    Cl(f) = 4.21729
    Cl(r) = -2.37464

forceCoeffs canard_10 write:
    Cm    = 3.82928
    Cd    = 0.88226
    Cl    = 1.84265
    Cl(f) = 4.75061
    Cl(r) = -2.90796

forceCoeffs canard_11 write:
    Cm    = 4.3626
    Cd    = 0.88226
    Cl    = 1.84265
    Cl(f) = 5.28393
    Cl(r) = -3.44128

Time = 7s

smoothSolver:  Solving for Ux, Initial residual = 0.0363334, Final residual = 0.00194794, No Iterations 4
smoothSolver:  Solving for Uy, Initial residual = 0.0188806, Final residual = 0.00115881, No Iterations 4
smoothSolver:  Solving for Uz, Initial residual = 0.150741, Final residual = 0.0088702, No Iterations 4
GAMG:  Solving for p, Initial residual = 0.222486, Final residual = 0.0130015, No Iterations 3
time step continuity errors : sum local = 0.00123326, global = -7.48721e-06, cumulative = 9.19869e-05
smoothSolver:  Solving for nuTilda, Initial residual = 0.0447666, Final residual = 0.00161948, No Iterations 2
bounding nuTilda, min: -2.12621e-06 max: 0.0602134 average: 0.016672
ExecutionTime = 85.0522 s  ClockTime = 86 s

forceCoeffs canard_1 write:
    Cm    = -2.62444
    Cd    = 2.60699
    Cl    = 5.2118
    Cl(f) = -0.0185378
    Cl(r) = 5.23033

forceCoeffs canard_2 write:
    Cm    = -1.10598
    Cd    = 2.60699
    Cl    = 5.2118
    Cl(f) = 1.49992
    Cl(r) = 3.71187

forceCoeffs canard_3 write:
    Cm    = 0.412484
    Cd    = 2.60699
    Cl    = 5.2118
    Cl(f) = 3.01838
    Cl(r) = 2.19341

forceCoeffs canard_4 write:
    Cm    = 1.93094
    Cd    = 2.60699
    Cl    = 5.2118
    Cl(f) = 4.53684
    Cl(r) = 0.674954

forceCoeffs canard_5 write:
    Cm    = 3.4494
    Cd    = 2.60699
    Cl    = 5.2118
    Cl(f) = 6.0553
    Cl(r) = -0.843507

forceCoeffs canard_6 write:
    Cm    = 4.96786
    Cd    = 2.60699
    Cl    = 5.2118
    Cl(f) = 7.57376
    Cl(r) = -2.36197

forceCoeffs canard_7 write:
    Cm    = 6.48632
    Cd    = 2.60699
    Cl    = 5.2118
    Cl(f) = 9.09222
    Cl(r) = -3.88043

forceCoeffs canard_8 write:
    Cm    = 8.00478
    Cd    = 2.60699
    Cl    = 5.2118
    Cl(f) = 10.6107
    Cl(r) = -5.39889

forceCoeffs canard_9 write:
    Cm    = 9.52324
    Cd    = 2.60699
    Cl    = 5.2118
    Cl(f) = 12.1291
    Cl(r) = -6.91735

forceCoeffs canard_10 write:
    Cm    = 11.0417
    Cd    = 2.60699
    Cl    = 5.2118
    Cl(f) = 13.6476
    Cl(r) = -8.43581

forceCoeffs canard_11 write:
    Cm    = 12.5602
    Cd    = 2.60699
    Cl    = 5.2118
    Cl(f) = 15.1661
    Cl(r) = -9.95427

Time = 8s

smoothSolver:  Solving for Ux, Initial residual = 0.0235334, Final residual = 0.00141006, No Iterations 4
smoothSolver:  Solving for Uy, Initial residual = 0.0104737, Final residual = 0.000699301, No Iterations 4
smoothSolver:  Solving for Uz, Initial residual = 0.137551, Final residual = 0.00796875, No Iterations 4
GAMG:  Solving for p, Initial residual = 0.229914, Final residual = 0.0153375, No Iterations 3
time step continuity errors : sum local = 0.00143014, global = -4.01041e-05, cumulative = 5.18829e-05
smoothSolver:  Solving for nuTilda, Initial residual = 0.0395469, Final residual = 0.00131531, No Iterations 2
bounding nuTilda, min: -0.00454166 max: 0.0602134 average: 0.0163566
ExecutionTime = 95.0316 s  ClockTime = 95 s

forceCoeffs canard_1 write:
    Cm    = -1.82984
    Cd    = 1.87435
    Cl    = 4.1399
    Cl(f) = 0.24011
    Cl(r) = 3.89979

forceCoeffs canard_2 write:
    Cm    = -0.641303
    Cd    = 1.87435
    Cl    = 4.1399
    Cl(f) = 1.42865
    Cl(r) = 2.71125

forceCoeffs canard_3 write:
    Cm    = 0.547235
    Cd    = 1.87435
    Cl    = 4.1399
    Cl(f) = 2.61719
    Cl(r) = 1.52272

forceCoeffs canard_4 write:
    Cm    = 1.73577
    Cd    = 1.87435
    Cl    = 4.1399
    Cl(f) = 3.80572
    Cl(r) = 0.334178

forceCoeffs canard_5 write:
    Cm    = 2.92431
    Cd    = 1.87435
    Cl    = 4.1399
    Cl(f) = 4.99426
    Cl(r) = -0.85436

forceCoeffs canard_6 write:
    Cm    = 4.11285
    Cd    = 1.87435
    Cl    = 4.1399
    Cl(f) = 6.1828
    Cl(r) = -2.0429

forceCoeffs canard_7 write:
    Cm    = 5.30139
    Cd    = 1.87435
    Cl    = 4.1399
    Cl(f) = 7.37134
    Cl(r) = -3.23144

forceCoeffs canard_8 write:
    Cm    = 6.48993
    Cd    = 1.87435
    Cl    = 4.1399
    Cl(f) = 8.55988
    Cl(r) = -4.41998

forceCoeffs canard_9 write:
    Cm    = 7.67846
    Cd    = 1.87435
    Cl    = 4.1399
    Cl(f) = 9.74842
    Cl(r) = -5.60851

forceCoeffs canard_10 write:
    Cm    = 8.867
    Cd    = 1.87435
    Cl    = 4.1399
    Cl(f) = 10.937
    Cl(r) = -6.79705

forceCoeffs canard_11 write:
    Cm    = 10.0555
    Cd    = 1.87435
    Cl    = 4.1399
    Cl(f) = 12.1255
    Cl(r) = -7.98559

Time = 9s

smoothSolver:  Solving for Ux, Initial residual = 0.0162696, Final residual = 0.00100428, No Iterations 4
smoothSolver:  Solving for Uy, Initial residual = 0.00485992, Final residual = 0.000318194, No Iterations 4
smoothSolver:  Solving for Uz, Initial residual = 0.129648, Final residual = 0.00782513, No Iterations 4
GAMG:  Solving for p, Initial residual = 0.309689, Final residual = 0.0154858, No Iterations 3
time step continuity errors : sum local = 0.00116899, global = -2.16186e-05, cumulative = 3.02643e-05
smoothSolver:  Solving for nuTilda, Initial residual = 0.0348596, Final residual = 0.00120266, No Iterations 2
bounding nuTilda, min: -0.0111329 max: 0.0602134 average: 0.0161031
ExecutionTime = 104.648 s  ClockTime = 105 s

forceCoeffs canard_1 write:
    Cm    = -0.197319
    Cd    = 0.272756
    Cl    = 1.42482
    Cl(f) = 0.51509
    Cl(r) = 0.909728

forceCoeffs canard_2 write:
    Cm    = 0.178334
    Cd    = 0.272756
    Cl    = 1.42482
    Cl(f) = 0.890743
    Cl(r) = 0.534075

forceCoeffs canard_3 write:
    Cm    = 0.553988
    Cd    = 0.272756
    Cl    = 1.42482
    Cl(f) = 1.2664
    Cl(r) = 0.158421

forceCoeffs canard_4 write:
    Cm    = 0.929641
    Cd    = 0.272756
    Cl    = 1.42482
    Cl(f) = 1.64205
    Cl(r) = -0.217232

forceCoeffs canard_5 write:
    Cm    = 1.30529
    Cd    = 0.272756
    Cl    = 1.42482
    Cl(f) = 2.0177
    Cl(r) = -0.592886

forceCoeffs canard_6 write:
    Cm    = 1.68095
    Cd    = 0.272756
    Cl    = 1.42482
    Cl(f) = 2.39336
    Cl(r) = -0.968539

forceCoeffs canard_7 write:
    Cm    = 2.0566
    Cd    = 0.272756
    Cl    = 1.42482
    Cl(f) = 2.76901
    Cl(r) = -1.34419

forceCoeffs canard_8 write:
    Cm    = 2.43225
    Cd    = 0.272756
    Cl    = 1.42482
    Cl(f) = 3.14466
    Cl(r) = -1.71985

forceCoeffs canard_9 write:
    Cm    = 2.80791
    Cd    = 0.272756
    Cl    = 1.42482
    Cl(f) = 3.52032
    Cl(r) = -2.0955

forceCoeffs canard_10 write:
    Cm    = 3.18356
    Cd    = 0.272756
    Cl    = 1.42482
    Cl(f) = 3.89597
    Cl(r) = -2.47115

forceCoeffs canard_11 write:
    Cm    = 3.55921
    Cd    = 0.272756
    Cl    = 1.42482
    Cl(f) = 4.27162
    Cl(r) = -2.84681

Time = 10s

smoothSolver:  Solving for Ux, Initial residual = 0.0129823, Final residual = 0.000752133, No Iterations 4
smoothSolver:  Solving for Uy, Initial residual = 0.00370927, Final residual = 0.000221667, No Iterations 4
smoothSolver:  Solving for Uz, Initial residual = 0.10998, Final residual = 0.00639403, No Iterations 4
GAMG:  Solving for p, Initial residual = 0.166902, Final residual = 0.0164476, No Iterations 2
time step continuity errors : sum local = 0.00163554, global = 5.02902e-05, cumulative = 8.05544e-05
smoothSolver:  Solving for nuTilda, Initial residual = 0.0302152, Final residual = 0.00110302, No Iterations 2
bounding nuTilda, min: -0.0059831 max: 0.0602134 average: 0.0158942
ExecutionTime = 120.629 s  ClockTime = 121 s

forceCoeffs canard_1 write:
    Cm    = 0.594263
    Cd    = -0.542159
    Cl    = -0.0440091
    Cl(f) = 0.572258
    Cl(r) = -0.616268

forceCoeffs canard_2 write:
    Cm    = 0.534779
    Cd    = -0.542159
    Cl    = -0.0440091
    Cl(f) = 0.512774
    Cl(r) = -0.556783

forceCoeffs canard_3 write:
    Cm    = 0.475294
    Cd    = -0.542159
    Cl    = -0.0440091
    Cl(f) = 0.45329
    Cl(r) = -0.497299

forceCoeffs canard_4 write:
    Cm    = 0.41581
    Cd    = -0.542159
    Cl    = -0.0440091
    Cl(f) = 0.393805
    Cl(r) = -0.437814

forceCoeffs canard_5 write:
    Cm    = 0.356325
    Cd    = -0.542159
    Cl    = -0.0440091
    Cl(f) = 0.334321
    Cl(r) = -0.37833

forceCoeffs canard_6 write:
    Cm    = 0.296841
    Cd    = -0.542159
    Cl    = -0.0440091
    Cl(f) = 0.274836
    Cl(r) = -0.318845

forceCoeffs canard_7 write:
    Cm    = 0.237356
    Cd    = -0.542159
    Cl    = -0.0440091
    Cl(f) = 0.215352
    Cl(r) = -0.259361

forceCoeffs canard_8 write:
    Cm    = 0.177872
    Cd    = -0.542159
    Cl    = -0.0440091
    Cl(f) = 0.155867
    Cl(r) = -0.199876

forceCoeffs canard_9 write:
    Cm    = 0.118387
    Cd    = -0.542159
    Cl    = -0.0440091
    Cl(f) = 0.0963829
    Cl(r) = -0.140392

forceCoeffs canard_10 write:
    Cm    = 0.058903
    Cd    = -0.542159
    Cl    = -0.0440091
    Cl(f) = 0.0368984
    Cl(r) = -0.0809075

forceCoeffs canard_11 write:
    Cm    = -0.000581479
    Cd    = -0.542159
    Cl    = -0.0440091
    Cl(f) = -0.022586
    Cl(r) = -0.0214231

Time = 11s

smoothSolver:  Solving for Ux, Initial residual = 0.0120139, Final residual = 0.000649917, No Iterations 4
smoothSolver:  Solving for Uy, Initial residual = 0.00464522, Final residual = 0.000288683, No Iterations 4
smoothSolver:  Solving for Uz, Initial residual = 0.0829172, Final residual = 0.0046782, No Iterations 4
GAMG:  Solving for p, Initial residual = 0.0815312, Final residual = 0.00547547, No Iterations 3
time step continuity errors : sum local = 0.00109805, global = 3.00496e-05, cumulative = 0.000110604
smoothSolver:  Solving for nuTilda, Initial residual = 0.0276781, Final residual = 0.00125663, No Iterations 2
bounding nuTilda, min: -0.0119005 max: 0.0602134 average: 0.0157132
ExecutionTime = 130.867 s  ClockTime = 131 s

forceCoeffs canard_1 write:
    Cm    = 0.315731
    Cd    = -0.334524
    Cl    = 0.207892
    Cl(f) = 0.419677
    Cl(r) = -0.211785

forceCoeffs canard_2 write:
    Cm    = 0.336961
    Cd    = -0.334524
    Cl    = 0.207892
    Cl(f) = 0.440907
    Cl(r) = -0.233015

forceCoeffs canard_3 write:
    Cm    = 0.358191
    Cd    = -0.334524
    Cl    = 0.207892
    Cl(f) = 0.462137
    Cl(r) = -0.254245

forceCoeffs canard_4 write:
    Cm    = 0.379422
    Cd    = -0.334524
    Cl    = 0.207892
    Cl(f) = 0.483368
    Cl(r) = -0.275476

forceCoeffs canard_5 write:
    Cm    = 0.400652
    Cd    = -0.334524
    Cl    = 0.207892
    Cl(f) = 0.504598
    Cl(r) = -0.296706

forceCoeffs canard_6 write:
    Cm    = 0.421882
    Cd    = -0.334524
    Cl    = 0.207892
    Cl(f) = 0.525828
    Cl(r) = -0.317936

forceCoeffs canard_7 write:
    Cm    = 0.443113
    Cd    = -0.334524
    Cl    = 0.207892
    Cl(f) = 0.547059
    Cl(r) = -0.339167

forceCoeffs canard_8 write:
    Cm    = 0.464343
    Cd    = -0.334524
    Cl    = 0.207892
    Cl(f) = 0.568289
    Cl(r) = -0.360397

forceCoeffs canard_9 write:
    Cm    = 0.485573
    Cd    = -0.334524
    Cl    = 0.207892
    Cl(f) = 0.589519
    Cl(r) = -0.381627

forceCoeffs canard_10 write:
    Cm    = 0.506804
    Cd    = -0.334524
    Cl    = 0.207892
    Cl(f) = 0.61075
    Cl(r) = -0.402858

forceCoeffs canard_11 write:
    Cm    = 0.528034
    Cd    = -0.334524
    Cl    = 0.207892
    Cl(f) = 0.63198
    Cl(r) = -0.424088

Time = 12s

smoothSolver:  Solving for Ux, Initial residual = 0.0117817, Final residual = 0.000611328, No Iterations 4
smoothSolver:  Solving for Uy, Initial residual = 0.00488135, Final residual = 0.000303538, No Iterations 4
smoothSolver:  Solving for Uz, Initial residual = 0.059807, Final residual = 0.00328978, No Iterations 4
GAMG:  Solving for p, Initial residual = 0.0777557, Final residual = 0.00423847, No Iterations 3
time step continuity errors : sum local = 0.000937616, global = 3.80557e-05, cumulative = 0.00014866
smoothSolver:  Solving for nuTilda, Initial residual = 0.0250128, Final residual = 0.0010823, No Iterations 2
bounding nuTilda, min: -0.00477242 max: 0.0602134 average: 0.0155604
ExecutionTime = 140.937 s  ClockTime = 141 s

forceCoeffs canard_1 write:
    Cm    = -0.391672
    Cd    = 0.331844
    Cl    = 1.31542
    Cl(f) = 0.26604
    Cl(r) = 1.04938

forceCoeffs canard_2 write:
    Cm    = -0.0376804
    Cd    = 0.331844
    Cl    = 1.31542
    Cl(f) = 0.620032
    Cl(r) = 0.695393

forceCoeffs canard_3 write:
    Cm    = 0.316311
    Cd    = 0.331844
    Cl    = 1.31542
    Cl(f) = 0.974023
    Cl(r) = 0.341401

forceCoeffs canard_4 write:
    Cm    = 0.670302
    Cd    = 0.331844
    Cl    = 1.31542
    Cl(f) = 1.32801
    Cl(r) = -0.0125902

forceCoeffs canard_5 write:
    Cm    = 1.02429
    Cd    = 0.331844
    Cl    = 1.31542
    Cl(f) = 1.68201
    Cl(r) = -0.366582

forceCoeffs canard_6 write:
    Cm    = 1.37829
    Cd    = 0.331844
    Cl    = 1.31542
    Cl(f) = 2.036
    Cl(r) = -0.720573

forceCoeffs canard_7 write:
    Cm    = 1.73228
    Cd    = 0.331844
    Cl    = 1.31542
    Cl(f) = 2.38999
    Cl(r) = -1.07456

forceCoeffs canard_8 write:
    Cm    = 2.08627
    Cd    = 0.331844
    Cl    = 1.31542
    Cl(f) = 2.74398
    Cl(r) = -1.42856

forceCoeffs canard_9 write:
    Cm    = 2.44026
    Cd    = 0.331844
    Cl    = 1.31542
    Cl(f) = 3.09797
    Cl(r) = -1.78255

forceCoeffs canard_10 write:
    Cm    = 2.79425
    Cd    = 0.331844
    Cl    = 1.31542
    Cl(f) = 3.45196
    Cl(r) = -2.13654

forceCoeffs canard_11 write:
    Cm    = 3.14824
    Cd    = 0.331844
    Cl    = 1.31542
    Cl(f) = 3.80595
    Cl(r) = -2.49053

Time = 13s

smoothSolver:  Solving for Ux, Initial residual = 0.0109765, Final residual = 0.000571729, No Iterations 4
smoothSolver:  Solving for Uy, Initial residual = 0.00527542, Final residual = 0.000315217, No Iterations 4
smoothSolver:  Solving for Uz, Initial residual = 0.0593675, Final residual = 0.00336617, No Iterations 4
GAMG:  Solving for p, Initial residual = 0.0842923, Final residual = 0.0076387, No Iterations 2
time step continuity errors : sum local = 0.00119654, global = -3.70757e-06, cumulative = 0.000144952
smoothSolver:  Solving for nuTilda, Initial residual = 0.0235211, Final residual = 0.00100124, No Iterations 2
bounding nuTilda, min: -0.0108519 max: 0.0602134 average: 0.0154257
ExecutionTime = 150.302 s  ClockTime = 151 s

forceCoeffs canard_1 write:
    Cm    = -0.780999
    Cd    = 0.729042
    Cl    = 2.02624
    Cl(f) = 0.23212
    Cl(r) = 1.79412

forceCoeffs canard_2 write:
    Cm    = -0.216176
    Cd    = 0.729042
    Cl    = 2.02624
    Cl(f) = 0.796943
    Cl(r) = 1.22929

forceCoeffs canard_3 write:
    Cm    = 0.348647
    Cd    = 0.729042
    Cl    = 2.02624
    Cl(f) = 1.36177
    Cl(r) = 0.664472

forceCoeffs canard_4 write:
    Cm    = 0.91347
    Cd    = 0.729042
    Cl    = 2.02624
    Cl(f) = 1.92659
    Cl(r) = 0.0996486

forceCoeffs canard_5 write:
    Cm    = 1.47829
    Cd    = 0.729042
    Cl    = 2.02624
    Cl(f) = 2.49141
    Cl(r) = -0.465174

forceCoeffs canard_6 write:
    Cm    = 2.04312
    Cd    = 0.729042
    Cl    = 2.02624
    Cl(f) = 3.05624
    Cl(r) = -1.03

forceCoeffs canard_7 write:
    Cm    = 2.60794
    Cd    = 0.729042
    Cl    = 2.02624
    Cl(f) = 3.62106
    Cl(r) = -1.59482

forceCoeffs canard_8 write:
    Cm    = 3.17276
    Cd    = 0.729042
    Cl    = 2.02624
    Cl(f) = 4.18588
    Cl(r) = -2.15964

forceCoeffs canard_9 write:
    Cm    = 3.73759
    Cd    = 0.729042
    Cl    = 2.02624
    Cl(f) = 4.7507
    Cl(r) = -2.72447

forceCoeffs canard_10 write:
    Cm    = 4.30241
    Cd    = 0.729042
    Cl    = 2.02624
    Cl(f) = 5.31553
    Cl(r) = -3.28929

forceCoeffs canard_11 write:
    Cm    = 4.86723
    Cd    = 0.729042
    Cl    = 2.02624
    Cl(f) = 5.88035
    Cl(r) = -3.85411

Time = 14s

smoothSolver:  Solving for Ux, Initial residual = 0.00891301, Final residual = 0.000476405, No Iterations 4
smoothSolver:  Solving for Uy, Initial residual = 0.00462328, Final residual = 0.000277941, No Iterations 4
smoothSolver:  Solving for Uz, Initial residual = 0.0565556, Final residual = 0.00314225, No Iterations 4
GAMG:  Solving for p, Initial residual = 0.141801, Final residual = 0.00791946, No Iterations 3
time step continuity errors : sum local = 0.00068874, global = -8.35178e-07, cumulative = 0.000144117
smoothSolver:  Solving for nuTilda, Initial residual = 0.0219933, Final residual = 0.00103763, No Iterations 2
bounding nuTilda, min: -0.00864524 max: 0.0602134 average: 0.0153153
ExecutionTime = 159.757 s  ClockTime = 160 s

forceCoeffs canard_1 write:
    Cm    = -0.728176
    Cd    = 0.734741
    Cl    = 2.12356
    Cl(f) = 0.333603
    Cl(r) = 1.78995

forceCoeffs canard_2 write:
    Cm    = -0.138855
    Cd    = 0.734741
    Cl    = 2.12356
    Cl(f) = 0.922924
    Cl(r) = 1.20063

forceCoeffs canard_3 write:
    Cm    = 0.450467
    Cd    = 0.734741
    Cl    = 2.12356
    Cl(f) = 1.51225
    Cl(r) = 0.611312

forceCoeffs canard_4 write:
    Cm    = 1.03979
    Cd    = 0.734741
    Cl    = 2.12356
    Cl(f) = 2.10157
    Cl(r) = 0.0219908

forceCoeffs canard_5 write:
    Cm    = 1.62911
    Cd    = 0.734741
    Cl    = 2.12356
    Cl(f) = 2.69089
    Cl(r) = -0.56733

forceCoeffs canard_6 write:
    Cm    = 2.21843
    Cd    = 0.734741
    Cl    = 2.12356
    Cl(f) = 3.28021
    Cl(r) = -1.15665

forceCoeffs canard_7 write:
    Cm    = 2.80775
    Cd    = 0.734741
    Cl    = 2.12356
    Cl(f) = 3.86953
    Cl(r) = -1.74597

forceCoeffs canard_8 write:
    Cm    = 3.39707
    Cd    = 0.734741
    Cl    = 2.12356
    Cl(f) = 4.45885
    Cl(r) = -2.33529

forceCoeffs canard_9 write:
    Cm    = 3.98639
    Cd    = 0.734741
    Cl    = 2.12356
    Cl(f) = 5.04817
    Cl(r) = -2.92462

forceCoeffs canard_10 write:
    Cm    = 4.57572
    Cd    = 0.734741
    Cl    = 2.12356
    Cl(f) = 5.63749
    Cl(r) = -3.51394

forceCoeffs canard_11 write:
    Cm    = 5.16504
    Cd    = 0.734741
    Cl    = 2.12356
    Cl(f) = 6.22682
    Cl(r) = -4.10326

Time = 15s

smoothSolver:  Solving for Ux, Initial residual = 0.00753582, Final residual = 0.000414998, No Iterations 4
smoothSolver:  Solving for Uy, Initial residual = 0.00330702, Final residual = 0.000198629, No Iterations 4
smoothSolver:  Solving for Uz, Initial residual = 0.0509568, Final residual = 0.00273765, No Iterations 4
GAMG:  Solving for p, Initial residual = 0.220393, Final residual = 0.0125878, No Iterations 3
time step continuity errors : sum local = 0.000724137, global = -2.25514e-05, cumulative = 0.000121566
smoothSolver:  Solving for nuTilda, Initial residual = 0.0210698, Final residual = 0.000853206, No Iterations 2
bounding nuTilda, min: -0.0108282 max: 0.0602134 average: 0.0152179
ExecutionTime = 169.319 s  ClockTime = 170 s

forceCoeffs canard_1 write:
    Cm    = -0.432059
    Cd    = 0.482704
    Cl    = 1.74956
    Cl(f) = 0.442719
    Cl(r) = 1.30684

forceCoeffs canard_2 write:
    Cm    = 0.0424696
    Cd    = 0.482704
    Cl    = 1.74956
    Cl(f) = 0.917247
    Cl(r) = 0.832308

forceCoeffs canard_3 write:
    Cm    = 0.516998
    Cd    = 0.482704
    Cl    = 1.74956
    Cl(f) = 1.39178
    Cl(r) = 0.35778

forceCoeffs canard_4 write:
    Cm    = 0.991526
    Cd    = 0.482704
    Cl    = 1.74956
    Cl(f) = 1.8663
    Cl(r) = -0.116748

forceCoeffs canard_5 write:
    Cm    = 1.46605
    Cd    = 0.482704
    Cl    = 1.74956
    Cl(f) = 2.34083
    Cl(r) = -0.591277

forceCoeffs canard_6 write:
    Cm    = 1.94058
    Cd    = 0.482704
    Cl    = 1.74956
    Cl(f) = 2.81536
    Cl(r) = -1.0658

forceCoeffs canard_7 write:
    Cm    = 2.41511
    Cd    = 0.482704
    Cl    = 1.74956
    Cl(f) = 3.28989
    Cl(r) = -1.54033

forceCoeffs canard_8 write:
    Cm    = 2.88964
    Cd    = 0.482704
    Cl    = 1.74956
    Cl(f) = 3.76442
    Cl(r) = -2.01486

forceCoeffs canard_9 write:
    Cm    = 3.36417
    Cd    = 0.482704
    Cl    = 1.74956
    Cl(f) = 4.23894
    Cl(r) = -2.48939

forceCoeffs canard_10 write:
    Cm    = 3.8387
    Cd    = 0.482704
    Cl    = 1.74956
    Cl(f) = 4.71347
    Cl(r) = -2.96392

forceCoeffs canard_11 write:
    Cm    = 4.31322
    Cd    = 0.482704
    Cl    = 1.74956
    Cl(f) = 5.188
    Cl(r) = -3.43845

Time = 16s

smoothSolver:  Solving for Ux, Initial residual = 0.00749383, Final residual = 0.000416016, No Iterations 4
smoothSolver:  Solving for Uy, Initial residual = 0.00313972, Final residual = 0.000181056, No Iterations 4
smoothSolver:  Solving for Uz, Initial residual = 0.0554433, Final residual = 0.00306214, No Iterations 4
GAMG:  Solving for p, Initial residual = 0.115703, Final residual = 0.0109809, No Iterations 2
time step continuity errors : sum local = 0.000990155, global = -4.33795e-05, cumulative = 7.81861e-05
smoothSolver:  Solving for nuTilda, Initial residual = 0.0215568, Final residual = 0.00100687, No Iterations 2
bounding nuTilda, min: -0.00908652 max: 0.0602134 average: 0.0151382
ExecutionTime = 178.389 s  ClockTime = 179 s

forceCoeffs canard_1 write:
    Cm    = -0.236464
    Cd    = 0.304521
    Cl    = 1.47108
    Cl(f) = 0.499077
    Cl(r) = 0.972005

forceCoeffs canard_2 write:
    Cm    = 0.153442
    Cd    = 0.304521
    Cl    = 1.47108
    Cl(f) = 0.888984
    Cl(r) = 0.582099

forceCoeffs canard_3 write:
    Cm    = 0.543349
    Cd    = 0.304521
    Cl    = 1.47108
    Cl(f) = 1.27889
    Cl(r) = 0.192192

forceCoeffs canard_4 write:
    Cm    = 0.933255
    Cd    = 0.304521
    Cl    = 1.47108
    Cl(f) = 1.6688
    Cl(r) = -0.197714

forceCoeffs canard_5 write:
    Cm    = 1.32316
    Cd    = 0.304521
    Cl    = 1.47108
    Cl(f) = 2.0587
    Cl(r) = -0.58762

forceCoeffs canard_6 write:
    Cm    = 1.71307
    Cd    = 0.304521
    Cl    = 1.47108
    Cl(f) = 2.44861
    Cl(r) = -0.977526

forceCoeffs canard_7 write:
    Cm    = 2.10297
    Cd    = 0.304521
    Cl    = 1.47108
    Cl(f) = 2.83852
    Cl(r) = -1.36743

forceCoeffs canard_8 write:
    Cm    = 2.49288
    Cd    = 0.304521
    Cl    = 1.47108
    Cl(f) = 3.22842
    Cl(r) = -1.75734

forceCoeffs canard_9 write:
    Cm    = 2.88279
    Cd    = 0.304521
    Cl    = 1.47108
    Cl(f) = 3.61833
    Cl(r) = -2.14725

forceCoeffs canard_10 write:
    Cm    = 3.27269
    Cd    = 0.304521
    Cl    = 1.47108
    Cl(f) = 4.00823
    Cl(r) = -2.53715

forceCoeffs canard_11 write:
    Cm    = 3.6626
    Cd    = 0.304521
    Cl    = 1.47108
    Cl(f) = 4.39814
    Cl(r) = -2.92706

Time = 17s

smoothSolver:  Solving for Ux, Initial residual = 0.00741165, Final residual = 0.000399647, No Iterations 4
smoothSolver:  Solving for Uy, Initial residual = 0.00344092, Final residual = 0.000193966, No Iterations 4
smoothSolver:  Solving for Uz, Initial residual = 0.0520964, Final residual = 0.00279463, No Iterations 4
GAMG:  Solving for p, Initial residual = 0.0679906, Final residual = 0.00316776, No Iterations 3
time step continuity errors : sum local = 0.000442041, global = 6.21174e-06, cumulative = 8.43979e-05
smoothSolver:  Solving for nuTilda, Initial residual = 0.0202647, Final residual = 0.000764927, No Iterations 2
bounding nuTilda, min: -0.0105396 max: 0.0602134 average: 0.0150664
ExecutionTime = 188.01 s  ClockTime = 189 s

forceCoeffs canard_1 write:
    Cm    = -0.184855
    Cd    = 0.243614
    Cl    = 1.36062
    Cl(f) = 0.495457
    Cl(r) = 0.865167

forceCoeffs canard_2 write:
    Cm    = 0.172362
    Cd    = 0.243614
    Cl    = 1.36062
    Cl(f) = 0.852674
    Cl(r) = 0.50795

forceCoeffs canard_3 write:
    Cm    = 0.529579
    Cd    = 0.243614
    Cl    = 1.36062
    Cl(f) = 1.20989
    Cl(r) = 0.150733

forceCoeffs canard_4 write:
    Cm    = 0.886796
    Cd    = 0.243614
    Cl    = 1.36062
    Cl(f) = 1.56711
    Cl(r) = -0.206484

forceCoeffs canard_5 write:
    Cm    = 1.24401
    Cd    = 0.243614
    Cl    = 1.36062
    Cl(f) = 1.92433
    Cl(r) = -0.563701

forceCoeffs canard_6 write:
    Cm    = 1.60123
    Cd    = 0.243614
    Cl    = 1.36062
    Cl(f) = 2.28154
    Cl(r) = -0.920918

forceCoeffs canard_7 write:
    Cm    = 1.95845
    Cd    = 0.243614
    Cl    = 1.36062
    Cl(f) = 2.63876
    Cl(r) = -1.27813

forceCoeffs canard_8 write:
    Cm    = 2.31566
    Cd    = 0.243614
    Cl    = 1.36062
    Cl(f) = 2.99598
    Cl(r) = -1.63535

forceCoeffs canard_9 write:
    Cm    = 2.67288
    Cd    = 0.243614
    Cl    = 1.36062
    Cl(f) = 3.35319
    Cl(r) = -1.99257

forceCoeffs canard_10 write:
    Cm    = 3.0301
    Cd    = 0.243614
    Cl    = 1.36062
    Cl(f) = 3.71041
    Cl(r) = -2.34979

forceCoeffs canard_11 write:
    Cm    = 3.38731
    Cd    = 0.243614
    Cl    = 1.36062
    Cl(f) = 4.06763
    Cl(r) = -2.707

Time = 18s

smoothSolver:  Solving for Ux, Initial residual = 0.00673269, Final residual = 0.000347383, No Iterations 4
smoothSolver:  Solving for Uy, Initial residual = 0.00340734, Final residual = 0.000188391, No Iterations 4
smoothSolver:  Solving for Uz, Initial residual = 0.0426326, Final residual = 0.0021546, No Iterations 4
GAMG:  Solving for p, Initial residual = 0.0521656, Final residual = 0.00271433, No Iterations 3
time step continuity errors : sum local = 0.00048557, global = 1.59661e-05, cumulative = 0.000100364
smoothSolver:  Solving for nuTilda, Initial residual = 0.0208201, Final residual = 0.00105139, No Iterations 2
bounding nuTilda, min: -0.0105946 max: 0.0602134 average: 0.0150074
ExecutionTime = 197.808 s  ClockTime = 198 s

forceCoeffs canard_1 write:
    Cm    = -0.252942
    Cd    = 0.30291
    Cl    = 1.45493
    Cl(f) = 0.474521
    Cl(r) = 0.980405

forceCoeffs canard_2 write:
    Cm    = 0.132838
    Cd    = 0.30291
    Cl    = 1.45493
    Cl(f) = 0.860301
    Cl(r) = 0.594625

forceCoeffs canard_3 write:
    Cm    = 0.518617
    Cd    = 0.30291
    Cl    = 1.45493
    Cl(f) = 1.24608
    Cl(r) = 0.208846

forceCoeffs canard_4 write:
    Cm    = 0.904397
    Cd    = 0.30291
    Cl    = 1.45493
    Cl(f) = 1.63186
    Cl(r) = -0.176934

forceCoeffs canard_5 write:
    Cm    = 1.29018
    Cd    = 0.30291
    Cl    = 1.45493
    Cl(f) = 2.01764
    Cl(r) = -0.562713

forceCoeffs canard_6 write:
    Cm    = 1.67596
    Cd    = 0.30291
    Cl    = 1.45493
    Cl(f) = 2.40342
    Cl(r) = -0.948493

forceCoeffs canard_7 write:
    Cm    = 2.06174
    Cd    = 0.30291
    Cl    = 1.45493
    Cl(f) = 2.7892
    Cl(r) = -1.33427

forceCoeffs canard_8 write:
    Cm    = 2.44751
    Cd    = 0.30291
    Cl    = 1.45493
    Cl(f) = 3.17498
    Cl(r) = -1.72005

forceCoeffs canard_9 write:
    Cm    = 2.83329
    Cd    = 0.30291
    Cl    = 1.45493
    Cl(f) = 3.56076
    Cl(r) = -2.10583

forceCoeffs canard_10 write:
    Cm    = 3.21907
    Cd    = 0.30291
    Cl    = 1.45493
    Cl(f) = 3.94654
    Cl(r) = -2.49161

forceCoeffs canard_11 write:
    Cm    = 3.60485
    Cd    = 0.30291
    Cl    = 1.45493
    Cl(f) = 4.33232
    Cl(r) = -2.87739

Time = 19s

smoothSolver:  Solving for Ux, Initial residual = 0.00606359, Final residual = 0.000318112, No Iterations 4
smoothSolver:  Solving for Uy, Initial residual = 0.0032368, Final residual = 0.000182133, No Iterations 4
smoothSolver:  Solving for Uz, Initial residual = 0.0354727, Final residual = 0.0018162, No Iterations 4
GAMG:  Solving for p, Initial residual = 0.0484205, Final residual = 0.00449163, No Iterations 2
time step continuity errors : sum local = 0.00077314, global = 4.51926e-05, cumulative = 0.000145557
smoothSolver:  Solving for nuTilda, Initial residual = 0.0197907, Final residual = 0.000863495, No Iterations 2
bounding nuTilda, min: -0.0106174 max: 0.0602134 average: 0.0149544
ExecutionTime = 207.141 s  ClockTime = 208 s

forceCoeffs canard_1 write:
    Cm    = -0.306829
    Cd    = 0.357227
    Cl    = 1.54572
    Cl(f) = 0.46603
    Cl(r) = 1.07969

forceCoeffs canard_2 write:
    Cm    = 0.106202
    Cd    = 0.357227
    Cl    = 1.54572
    Cl(f) = 0.879061
    Cl(r) = 0.666657

forceCoeffs canard_3 write:
    Cm    = 0.519232
    Cd    = 0.357227
    Cl    = 1.54572
    Cl(f) = 1.29209
    Cl(r) = 0.253627

forceCoeffs canard_4 write:
    Cm    = 0.932262
    Cd    = 0.357227
    Cl    = 1.54572
    Cl(f) = 1.70512
    Cl(r) = -0.159404

forceCoeffs canard_5 write:
    Cm    = 1.34529
    Cd    = 0.357227
    Cl    = 1.54572
    Cl(f) = 2.11815
    Cl(r) = -0.572434

forceCoeffs canard_6 write:
    Cm    = 1.75832
    Cd    = 0.357227
    Cl    = 1.54572
    Cl(f) = 2.53118
    Cl(r) = -0.985464

forceCoeffs canard_7 write:
    Cm    = 2.17135
    Cd    = 0.357227
    Cl    = 1.54572
    Cl(f) = 2.94421
    Cl(r) = -1.39849

forceCoeffs canard_8 write:
    Cm    = 2.58438
    Cd    = 0.357227
    Cl    = 1.54572
    Cl(f) = 3.35724
    Cl(r) = -1.81153

forceCoeffs canard_9 write:
    Cm    = 2.99741
    Cd    = 0.357227
    Cl    = 1.54572
    Cl(f) = 3.77027
    Cl(r) = -2.22456

forceCoeffs canard_10 write:
    Cm    = 3.41045
    Cd    = 0.357227
    Cl    = 1.54572
    Cl(f) = 4.1833
    Cl(r) = -2.63759

forceCoeffs canard_11 write:
    Cm    = 3.82348
    Cd    = 0.357227
    Cl    = 1.54572
    Cl(f) = 4.59633
    Cl(r) = -3.05062

Time = 20s

smoothSolver:  Solving for Ux, Initial residual = 0.00539204, Final residual = 0.00028127, No Iterations 4
smoothSolver:  Solving for Uy, Initial residual = 0.00298575, Final residual = 0.000165943, No Iterations 4
smoothSolver:  Solving for Uz, Initial residual = 0.0306413, Final residual = 0.00158964, No Iterations 4
GAMG:  Solving for p, Initial residual = 0.0518885, Final residual = 0.00224648, No Iterations 3
time step continuity errors : sum local = 0.000323566, global = 1.3035e-05, cumulative = 0.000158592
smoothSolver:  Solving for nuTilda, Initial residual = 0.0204248, Final residual = 0.000855919, No Iterations 2
bounding nuTilda, min: -0.00995231 max: 0.0602134 average: 0.0149112
ExecutionTime = 222.747 s  ClockTime = 223 s

forceCoeffs canard_1 write:
    Cm    = -0.319794
    Cd    = 0.385212
    Cl    = 1.59833
    Cl(f) = 0.479371
    Cl(r) = 1.11896

forceCoeffs canard_2 write:
    Cm    = 0.108715
    Cd    = 0.385212
    Cl    = 1.59833
    Cl(f) = 0.90788
    Cl(r) = 0.69045

forceCoeffs canard_3 write:
    Cm    = 0.537223
    Cd    = 0.385212
    Cl    = 1.59833
    Cl(f) = 1.33639
    Cl(r) = 0.261942

forceCoeffs canard_4 write:
    Cm    = 0.965732
    Cd    = 0.385212
    Cl    = 1.59833
    Cl(f) = 1.7649
    Cl(r) = -0.166567

forceCoeffs canard_5 write:
    Cm    = 1.39424
    Cd    = 0.385212
    Cl    = 1.59833
    Cl(f) = 2.19341
    Cl(r) = -0.595075

forceCoeffs canard_6 write:
    Cm    = 1.82275
    Cd    = 0.385212
    Cl    = 1.59833
    Cl(f) = 2.62191
    Cl(r) = -1.02358

forceCoeffs canard_7 write:
    Cm    = 2.25126
    Cd    = 0.385212
    Cl    = 1.59833
    Cl(f) = 3.05042
    Cl(r) = -1.45209

forceCoeffs canard_8 write:
    Cm    = 2.67977
    Cd    = 0.385212
    Cl    = 1.59833
    Cl(f) = 3.47893
    Cl(r) = -1.8806

forceCoeffs canard_9 write:
    Cm    = 3.10827
    Cd    = 0.385212
    Cl    = 1.59833
    Cl(f) = 3.90744
    Cl(r) = -2.30911

forceCoeffs canard_10 write:
    Cm    = 3.53678
    Cd    = 0.385212
    Cl    = 1.59833
    Cl(f) = 4.33595
    Cl(r) = -2.73762

forceCoeffs canard_11 write:
    Cm    = 3.96529
    Cd    = 0.385212
    Cl    = 1.59833
    Cl(f) = 4.76446
    Cl(r) = -3.16613

Time = 21s

smoothSolver:  Solving for Ux, Initial residual = 0.00489634, Final residual = 0.000253252, No Iterations 4
smoothSolver:  Solving for Uy, Initial residual = 0.00280428, Final residual = 0.000150543, No Iterations 4
smoothSolver:  Solving for Uz, Initial residual = 0.0294821, Final residual = 0.00153599, No Iterations 4
GAMG:  Solving for p, Initial residual = 0.0584282, Final residual = 0.00560556, No Iterations 2
time step continuity errors : sum local = 0.000644907, global = -4.12039e-06, cumulative = 0.000154471
smoothSolver:  Solving for nuTilda, Initial residual = 0.0198196, Final residual = 0.000993992, No Iterations 2
bounding nuTilda, min: -0.0107199 max: 0.0602134 average: 0.0148721
ExecutionTime = 232.319 s  ClockTime = 233 s

forceCoeffs canard_1 write:
    Cm    = -0.292371
    Cd    = 0.372946
    Cl    = 1.58123
    Cl(f) = 0.498244
    Cl(r) = 1.08299

forceCoeffs canard_2 write:
    Cm    = 0.130823
    Cd    = 0.372946
    Cl    = 1.58123
    Cl(f) = 0.921438
    Cl(r) = 0.659792

forceCoeffs canard_3 write:
    Cm    = 0.554016
    Cd    = 0.372946
    Cl    = 1.58123
    Cl(f) = 1.34463
    Cl(r) = 0.236599

forceCoeffs canard_4 write:
    Cm    = 0.97721
    Cd    = 0.372946
    Cl    = 1.58123
    Cl(f) = 1.76782
    Cl(r) = -0.186595

forceCoeffs canard_5 write:
    Cm    = 1.4004
    Cd    = 0.372946
    Cl    = 1.58123
    Cl(f) = 2.19102
    Cl(r) = -0.609788

forceCoeffs canard_6 write:
    Cm    = 1.8236
    Cd    = 0.372946
    Cl    = 1.58123
    Cl(f) = 2.61421
    Cl(r) = -1.03298

forceCoeffs canard_7 write:
    Cm    = 2.24679
    Cd    = 0.372946
    Cl    = 1.58123
    Cl(f) = 3.03741
    Cl(r) = -1.45618

forceCoeffs canard_8 write:
    Cm    = 2.66998
    Cd    = 0.372946
    Cl    = 1.58123
    Cl(f) = 3.4606
    Cl(r) = -1.87937

forceCoeffs canard_9 write:
    Cm    = 3.09318
    Cd    = 0.372946
    Cl    = 1.58123
    Cl(f) = 3.88379
    Cl(r) = -2.30256

forceCoeffs canard_10 write:
    Cm    = 3.51637
    Cd    = 0.372946
    Cl    = 1.58123
    Cl(f) = 4.30699
    Cl(r) = -2.72576

forceCoeffs canard_11 write:
    Cm    = 3.93956
    Cd    = 0.372946
    Cl    = 1.58123
    Cl(f) = 4.73018
    Cl(r) = -3.14895

Time = 22s

smoothSolver:  Solving for Ux, Initial residual = 0.00464885, Final residual = 0.000243757, No Iterations 4
smoothSolver:  Solving for Uy, Initial residual = 0.0026098, Final residual = 0.000140657, No Iterations 4
smoothSolver:  Solving for Uz, Initial residual = 0.0294523, Final residual = 0.00154298, No Iterations 4
GAMG:  Solving for p, Initial residual = 0.0560035, Final residual = 0.00268361, No Iterations 3
time step continuity errors : sum local = 0.000309105, global = -3.90712e-06, cumulative = 0.000150564
smoothSolver:  Solving for nuTilda, Initial residual = 0.0201119, Final residual = 0.000762052, No Iterations 2
bounding nuTilda, min: -0.0107868 max: 0.0602134 average: 0.0148401
ExecutionTime = 241.775 s  ClockTime = 242 s

forceCoeffs canard_1 write:
    Cm    = -0.261079
    Cd    = 0.362017
    Cl    = 1.58105
    Cl(f) = 0.529448
    Cl(r) = 1.05161

forceCoeffs canard_2 write:
    Cm    = 0.161091
    Cd    = 0.362017
    Cl    = 1.58105
    Cl(f) = 0.951618
    Cl(r) = 0.629437

forceCoeffs canard_3 write:
    Cm    = 0.583261
    Cd    = 0.362017
    Cl    = 1.58105
    Cl(f) = 1.37379
    Cl(r) = 0.207267

forceCoeffs canard_4 write:
    Cm    = 1.00543
    Cd    = 0.362017
    Cl    = 1.58105
    Cl(f) = 1.79596
    Cl(r) = -0.214903

forceCoeffs canard_5 write:
    Cm    = 1.4276
    Cd    = 0.362017
    Cl    = 1.58105
    Cl(f) = 2.21813
    Cl(r) = -0.637073

forceCoeffs canard_6 write:
    Cm    = 1.84977
    Cd    = 0.362017
    Cl    = 1.58105
    Cl(f) = 2.6403
    Cl(r) = -1.05924

forceCoeffs canard_7 write:
    Cm    = 2.27194
    Cd    = 0.362017
    Cl    = 1.58105
    Cl(f) = 3.06247
    Cl(r) = -1.48141

forceCoeffs canard_8 write:
    Cm    = 2.69411
    Cd    = 0.362017
    Cl    = 1.58105
    Cl(f) = 3.48464
    Cl(r) = -1.90358

forceCoeffs canard_9 write:
    Cm    = 3.11628
    Cd    = 0.362017
    Cl    = 1.58105
    Cl(f) = 3.90681
    Cl(r) = -2.32575

forceCoeffs canard_10 write:
    Cm    = 3.53845
    Cd    = 0.362017
    Cl    = 1.58105
    Cl(f) = 4.32898
    Cl(r) = -2.74792

forceCoeffs canard_11 write:
    Cm    = 3.96062
    Cd    = 0.362017
    Cl    = 1.58105
    Cl(f) = 4.75115
    Cl(r) = -3.17009

Time = 23s

smoothSolver:  Solving for Ux, Initial residual = 0.00445384, Final residual = 0.000237695, No Iterations 4
smoothSolver:  Solving for Uy, Initial residual = 0.00249327, Final residual = 0.000135905, No Iterations 4
smoothSolver:  Solving for Uz, Initial residual = 0.029736, Final residual = 0.00154391, No Iterations 4
GAMG:  Solving for p, Initial residual = 0.0423052, Final residual = 0.00413446, No Iterations 2
time step continuity errors : sum local = 0.000555797, global = -4.01796e-05, cumulative = 0.000110384
smoothSolver:  Solving for nuTilda, Initial residual = 0.0192381, Final residual = 0.000954606, No Iterations 2
bounding nuTilda, min: -0.010648 max: 0.0602134 average: 0.0148097
ExecutionTime = 250.891 s  ClockTime = 251 s

forceCoeffs canard_1 write:
    Cm    = -0.2461
    Cd    = 0.358977
    Cl    = 1.59275
    Cl(f) = 0.550276
    Cl(r) = 1.04248

forceCoeffs canard_2 write:
    Cm    = 0.17868
    Cd    = 0.358977
    Cl    = 1.59275
    Cl(f) = 0.975056
    Cl(r) = 0.617695

forceCoeffs canard_3 write:
    Cm    = 0.60346
    Cd    = 0.358977
    Cl    = 1.59275
    Cl(f) = 1.39984
    Cl(r) = 0.192915

forceCoeffs canard_4 write:
    Cm    = 1.02824
    Cd    = 0.358977
    Cl    = 1.59275
    Cl(f) = 1.82462
    Cl(r) = -0.231865

forceCoeffs canard_5 write:
    Cm    = 1.45302
    Cd    = 0.358977
    Cl    = 1.59275
    Cl(f) = 2.2494
    Cl(r) = -0.656645

forceCoeffs canard_6 write:
    Cm    = 1.8778
    Cd    = 0.358977
    Cl    = 1.59275
    Cl(f) = 2.67418
    Cl(r) = -1.08143

forceCoeffs canard_7 write:
    Cm    = 2.30258
    Cd    = 0.358977
    Cl    = 1.59275
    Cl(f) = 3.09896
    Cl(r) = -1.50621

forceCoeffs canard_8 write:
    Cm    = 2.72736
    Cd    = 0.358977
    Cl    = 1.59275
    Cl(f) = 3.52374
    Cl(r) = -1.93099

forceCoeffs canard_9 write:
    Cm    = 3.15214
    Cd    = 0.358977
    Cl    = 1.59275
    Cl(f) = 3.94852
    Cl(r) = -2.35577

forceCoeffs canard_10 write:
    Cm    = 3.57692
    Cd    = 0.358977
    Cl    = 1.59275
    Cl(f) = 4.3733
    Cl(r) = -2.78055

forceCoeffs canard_11 write:
    Cm    = 4.0017
    Cd    = 0.358977
    Cl    = 1.59275
    Cl(f) = 4.79808
    Cl(r) = -3.20533

Time = 24s

smoothSolver:  Solving for Ux, Initial residual = 0.00442248, Final residual = 0.000231104, No Iterations 4
smoothSolver:  Solving for Uy, Initial residual = 0.00258598, Final residual = 0.000136793, No Iterations 4
smoothSolver:  Solving for Uz, Initial residual = 0.0294305, Final residual = 0.00146968, No Iterations 4
GAMG:  Solving for p, Initial residual = 0.0351501, Final residual = 0.00154618, No Iterations 3
time step continuity errors : sum local = 0.000233083, global = -7.1039e-07, cumulative = 0.000109674
smoothSolver:  Solving for nuTilda, Initial residual = 0.020019, Final residual = 0.000943994, No Iterations 2
bounding nuTilda, min: -0.00781084 max: 0.0602134 average: 0.0147856
ExecutionTime = 260.684 s  ClockTime = 274 s

forceCoeffs canard_1 write:
    Cm    = -0.229643
    Cd    = 0.350688
    Cl    = 1.59478
    Cl(f) = 0.567749
    Cl(r) = 1.02703

forceCoeffs canard_2 write:
    Cm    = 0.194895
    Cd    = 0.350688
    Cl    = 1.59478
    Cl(f) = 0.992286
    Cl(r) = 0.602497

forceCoeffs canard_3 write:
    Cm    = 0.619432
    Cd    = 0.350688
    Cl    = 1.59478
    Cl(f) = 1.41682
    Cl(r) = 0.17796

forceCoeffs canard_4 write:
    Cm    = 1.04397
    Cd    = 0.350688
    Cl    = 1.59478
    Cl(f) = 1.84136
    Cl(r) = -0.246578

forceCoeffs canard_5 write:
    Cm    = 1.46851
    Cd    = 0.350688
    Cl    = 1.59478
    Cl(f) = 2.2659
    Cl(r) = -0.671115

forceCoeffs canard_6 write:
    Cm    = 1.89304
    Cd    = 0.350688
    Cl    = 1.59478
    Cl(f) = 2.69044
    Cl(r) = -1.09565

forceCoeffs canard_7 write:
    Cm    = 2.31758
    Cd    = 0.350688
    Cl    = 1.59478
    Cl(f) = 3.11497
    Cl(r) = -1.52019

forceCoeffs canard_8 write:
    Cm    = 2.74212
    Cd    = 0.350688
    Cl    = 1.59478
    Cl(f) = 3.53951
    Cl(r) = -1.94473

forceCoeffs canard_9 write:
    Cm    = 3.16666
    Cd    = 0.350688
    Cl    = 1.59478
    Cl(f) = 3.96405
    Cl(r) = -2.36926

forceCoeffs canard_10 write:
    Cm    = 3.59119
    Cd    = 0.350688
    Cl    = 1.59478
    Cl(f) = 4.38859
    Cl(r) = -2.7938

forceCoeffs canard_11 write:
    Cm    = 4.01573
    Cd    = 0.350688
    Cl    = 1.59478
    Cl(f) = 4.81312
    Cl(r) = -3.21834

Time = 25s

smoothSolver:  Solving for Ux, Initial residual = 0.00422116, Final residual = 0.000215575, No Iterations 4
smoothSolver:  Solving for Uy, Initial residual = 0.00266077, Final residual = 0.000139075, No Iterations 4
smoothSolver:  Solving for Uz, Initial residual = 0.0274303, Final residual = 0.00133256, No Iterations 4
GAMG:  Solving for p, Initial residual = 0.0308264, Final residual = 0.00277315, No Iterations 2
time step continuity errors : sum local = 0.000442678, global = 3.9652e-06, cumulative = 0.000113639
smoothSolver:  Solving for nuTilda, Initial residual = 0.018993, Final residual = 0.00077269, No Iterations 2
bounding nuTilda, min: -0.0106458 max: 0.0602134 average: 0.014763
ExecutionTime = 269.924 s  ClockTime = 283 s

forceCoeffs canard_1 write:
    Cm    = -0.21461
    Cd    = 0.337393
    Cl    = 1.58062
    Cl(f) = 0.5757
    Cl(r) = 1.00492

forceCoeffs canard_2 write:
    Cm    = 0.205243
    Cd    = 0.337393
    Cl    = 1.58062
    Cl(f) = 0.995554
    Cl(r) = 0.585067

forceCoeffs canard_3 write:
    Cm    = 0.625097
    Cd    = 0.337393
    Cl    = 1.58062
    Cl(f) = 1.41541
    Cl(r) = 0.165213

forceCoeffs canard_4 write:
    Cm    = 1.04495
    Cd    = 0.337393
    Cl    = 1.58062
    Cl(f) = 1.83526
    Cl(r) = -0.254641

forceCoeffs canard_5 write:
    Cm    = 1.4648
    Cd    = 0.337393
    Cl    = 1.58062
    Cl(f) = 2.25511
    Cl(r) = -0.674494

forceCoeffs canard_6 write:
    Cm    = 1.88466
    Cd    = 0.337393
    Cl    = 1.58062
    Cl(f) = 2.67497
    Cl(r) = -1.09435

forceCoeffs canard_7 write:
    Cm    = 2.30451
    Cd    = 0.337393
    Cl    = 1.58062
    Cl(f) = 3.09482
    Cl(r) = -1.5142

forceCoeffs canard_8 write:
    Cm    = 2.72437
    Cd    = 0.337393
    Cl    = 1.58062
    Cl(f) = 3.51468
    Cl(r) = -1.93406

forceCoeffs canard_9 write:
    Cm    = 3.14422
    Cd    = 0.337393
    Cl    = 1.58062
    Cl(f) = 3.93453
    Cl(r) = -2.35391

forceCoeffs canard_10 write:
    Cm    = 3.56407
    Cd    = 0.337393
    Cl    = 1.58062
    Cl(f) = 4.35438
    Cl(r) = -2.77376

forceCoeffs canard_11 write:
    Cm    = 3.98393
    Cd    = 0.337393
    Cl    = 1.58062
    Cl(f) = 4.77424
    Cl(r) = -3.19362

Time = 26s

smoothSolver:  Solving for Ux, Initial residual = 0.0039176, Final residual = 0.000201575, No Iterations 4
smoothSolver:  Solving for Uy, Initial residual = 0.00254522, Final residual = 0.000134781, No Iterations 4
smoothSolver:  Solving for Uz, Initial residual = 0.0240408, Final residual = 0.00117684, No Iterations 4
GAMG:  Solving for p, Initial residual = 0.0300846, Final residual = 0.00294868, No Iterations 2
time step continuity errors : sum local = 0.000456571, global = 1.81721e-05, cumulative = 0.000131811
smoothSolver:  Solving for nuTilda, Initial residual = 0.019944, Final residual = 0.000976314, No Iterations 2
bounding nuTilda, min: -0.00895365 max: 0.0602134 average: 0.0147448
ExecutionTime = 279.485 s  ClockTime = 293 s

forceCoeffs canard_1 write:
    Cm    = -0.196523
    Cd    = 0.318865
    Cl    = 1.5487
    Cl(f) = 0.577825
    Cl(r) = 0.970872

forceCoeffs canard_2 write:
    Cm    = 0.2138
    Cd    = 0.318865
    Cl    = 1.5487
    Cl(f) = 0.988148
    Cl(r) = 0.560549

forceCoeffs canard_3 write:
    Cm    = 0.624123
    Cd    = 0.318865
    Cl    = 1.5487
    Cl(f) = 1.39847
    Cl(r) = 0.150226

forceCoeffs canard_4 write:
    Cm    = 1.03445
    Cd    = 0.318865
    Cl    = 1.5487
    Cl(f) = 1.80879
    Cl(r) = -0.260098

forceCoeffs canard_5 write:
    Cm    = 1.44477
    Cd    = 0.318865
    Cl    = 1.5487
    Cl(f) = 2.21912
    Cl(r) = -0.670421

forceCoeffs canard_6 write:
    Cm    = 1.85509
    Cd    = 0.318865
    Cl    = 1.5487
    Cl(f) = 2.62944
    Cl(r) = -1.08074

forceCoeffs canard_7 write:
    Cm    = 2.26542
    Cd    = 0.318865
    Cl    = 1.5487
    Cl(f) = 3.03976
    Cl(r) = -1.49107

forceCoeffs canard_8 write:
    Cm    = 2.67574
    Cd    = 0.318865
    Cl    = 1.5487
    Cl(f) = 3.45009
    Cl(r) = -1.90139

forceCoeffs canard_9 write:
    Cm    = 3.08606
    Cd    = 0.318865
    Cl    = 1.5487
    Cl(f) = 3.86041
    Cl(r) = -2.31171

forceCoeffs canard_10 write:
    Cm    = 3.49638
    Cd    = 0.318865
    Cl    = 1.5487
    Cl(f) = 4.27073
    Cl(r) = -2.72204

forceCoeffs canard_11 write:
    Cm    = 3.90671
    Cd    = 0.318865
    Cl    = 1.5487
    Cl(f) = 4.68106
    Cl(r) = -3.13236

Time = 27s

smoothSolver:  Solving for Ux, Initial residual = 0.00363631, Final residual = 0.000186068, No Iterations 4
smoothSolver:  Solving for Uy, Initial residual = 0.00234951, Final residual = 0.000126419, No Iterations 4
smoothSolver:  Solving for Uz, Initial residual = 0.0207241, Final residual = 0.00104124, No Iterations 4
GAMG:  Solving for p, Initial residual = 0.029106, Final residual = 0.00138028, No Iterations 3
time step continuity errors : sum local = 0.000200699, global = 1.97814e-05, cumulative = 0.000151593
smoothSolver:  Solving for nuTilda, Initial residual = 0.0187395, Final residual = 0.000716865, No Iterations 2
bounding nuTilda, min: -0.010424 max: 0.0602134 average: 0.0147263
ExecutionTime = 289.277 s  ClockTime = 290 s

forceCoeffs canard_1 write:
    Cm    = -0.182282
    Cd    = 0.304935
    Cl    = 1.51993
    Cl(f) = 0.577681
    Cl(r) = 0.942246

forceCoeffs canard_2 write:
    Cm    = 0.2197
    Cd    = 0.304935
    Cl    = 1.51993
    Cl(f) = 0.979664
    Cl(r) = 0.540263

forceCoeffs canard_3 write:
    Cm    = 0.621683
    Cd    = 0.304935
    Cl    = 1.51993
    Cl(f) = 1.38165
    Cl(r) = 0.138281

forceCoeffs canard_4 write:
    Cm    = 1.02367
    Cd    = 0.304935
    Cl    = 1.51993
    Cl(f) = 1.78363
    Cl(r) = -0.263702

forceCoeffs canard_5 write:
    Cm    = 1.42565
    Cd    = 0.304935
    Cl    = 1.51993
    Cl(f) = 2.18561
    Cl(r) = -0.665684

forceCoeffs canard_6 write:
    Cm    = 1.82763
    Cd    = 0.304935
    Cl    = 1.51993
    Cl(f) = 2.58759
    Cl(r) = -1.06767

forceCoeffs canard_7 write:
    Cm    = 2.22961
    Cd    = 0.304935
    Cl    = 1.51993
    Cl(f) = 2.98958
    Cl(r) = -1.46965

forceCoeffs canard_8 write:
    Cm    = 2.6316
    Cd    = 0.304935
    Cl    = 1.51993
    Cl(f) = 3.39156
    Cl(r) = -1.87163

forceCoeffs canard_9 write:
    Cm    = 3.03358
    Cd    = 0.304935
    Cl    = 1.51993
    Cl(f) = 3.79354
    Cl(r) = -2.27361

forceCoeffs canard_10 write:
    Cm    = 3.43556
    Cd    = 0.304935
    Cl    = 1.51993
    Cl(f) = 4.19552
    Cl(r) = -2.6756

forceCoeffs canard_11 write:
    Cm    = 3.83754
    Cd    = 0.304935
    Cl    = 1.51993
    Cl(f) = 4.59751
    Cl(r) = -3.07758

Time = 28s

smoothSolver:  Solving for Ux, Initial residual = 0.00348151, Final residual = 0.000177088, No Iterations 4
smoothSolver:  Solving for Uy, Initial residual = 0.00229608, Final residual = 0.000122374, No Iterations 4
smoothSolver:  Solving for Uz, Initial residual = 0.0202387, Final residual = 0.00105476, No Iterations 4
GAMG:  Solving for p, Initial residual = 0.027151, Final residual = 0.00225528, No Iterations 2
time step continuity errors : sum local = 0.000312971, global = 3.72192e-06, cumulative = 0.000155315
smoothSolver:  Solving for nuTilda, Initial residual = 0.0200491, Final residual = 0.000971411, No Iterations 2
bounding nuTilda, min: -0.0105754 max: 0.0602134 average: 0.0147101
ExecutionTime = 298.649 s  ClockTime = 299 s

forceCoeffs canard_1 write:
    Cm    = -0.181247
    Cd    = 0.307653
    Cl    = 1.52331
    Cl(f) = 0.580406
    Cl(r) = 0.942899

forceCoeffs canard_2 write:
    Cm    = 0.221812
    Cd    = 0.307653
    Cl    = 1.52331
    Cl(f) = 0.983465
    Cl(r) = 0.53984

forceCoeffs canard_3 write:
    Cm    = 0.624871
    Cd    = 0.307653
    Cl    = 1.52331
    Cl(f) = 1.38652
    Cl(r) = 0.136781

forceCoeffs canard_4 write:
    Cm    = 1.02793
    Cd    = 0.307653
    Cl    = 1.52331
    Cl(f) = 1.78958
    Cl(r) = -0.266278

forceCoeffs canard_5 write:
    Cm    = 1.43099
    Cd    = 0.307653
    Cl    = 1.52331
    Cl(f) = 2.19264
    Cl(r) = -0.669336

forceCoeffs canard_6 write:
    Cm    = 1.83405
    Cd    = 0.307653
    Cl    = 1.52331
    Cl(f) = 2.5957
    Cl(r) = -1.0724

forceCoeffs canard_7 write:
    Cm    = 2.23711
    Cd    = 0.307653
    Cl    = 1.52331
    Cl(f) = 2.99876
    Cl(r) = -1.47545

forceCoeffs canard_8 write:
    Cm    = 2.64017
    Cd    = 0.307653
    Cl    = 1.52331
    Cl(f) = 3.40182
    Cl(r) = -1.87851

forceCoeffs canard_9 write:
    Cm    = 3.04322
    Cd    = 0.307653
    Cl    = 1.52331
    Cl(f) = 3.80488
    Cl(r) = -2.28157

forceCoeffs canard_10 write:
    Cm    = 3.44628
    Cd    = 0.307653
    Cl    = 1.52331
    Cl(f) = 4.20794
    Cl(r) = -2.68463

forceCoeffs canard_11 write:
    Cm    = 3.84934
    Cd    = 0.307653
    Cl    = 1.52331
    Cl(f) = 4.611
    Cl(r) = -3.08769

Time = 29s

smoothSolver:  Solving for Ux, Initial residual = 0.00333851, Final residual = 0.000170462, No Iterations 4
smoothSolver:  Solving for Uy, Initial residual = 0.00224048, Final residual = 0.000117385, No Iterations 4
smoothSolver:  Solving for Uz, Initial residual = 0.020329, Final residual = 0.00104822, No Iterations 4
GAMG:  Solving for p, Initial residual = 0.0262149, Final residual = 0.00242652, No Iterations 2
time step continuity errors : sum local = 0.000342014, global = -1.85247e-05, cumulative = 0.00013679
smoothSolver:  Solving for nuTilda, Initial residual = 0.0188742, Final residual = 0.000925056, No Iterations 2
bounding nuTilda, min: -0.00995147 max: 0.0602134 average: 0.0146937
ExecutionTime = 308.064 s  ClockTime = 309 s

forceCoeffs canard_1 write:
    Cm    = -0.187892
    Cd    = 0.321347
    Cl    = 1.55233
    Cl(f) = 0.588273
    Cl(r) = 0.964057

forceCoeffs canard_2 write:
    Cm    = 0.22355
    Cd    = 0.321347
    Cl    = 1.55233
    Cl(f) = 0.999715
    Cl(r) = 0.552616

forceCoeffs canard_3 write:
    Cm    = 0.634991
    Cd    = 0.321347
    Cl    = 1.55233
    Cl(f) = 1.41116
    Cl(r) = 0.141174

forceCoeffs canard_4 write:
    Cm    = 1.04643
    Cd    = 0.321347
    Cl    = 1.55233
    Cl(f) = 1.8226
    Cl(r) = -0.270267

forceCoeffs canard_5 write:
    Cm    = 1.45787
    Cd    = 0.321347
    Cl    = 1.55233
    Cl(f) = 2.23404
    Cl(r) = -0.681709

forceCoeffs canard_6 write:
    Cm    = 1.86932
    Cd    = 0.321347
    Cl    = 1.55233
    Cl(f) = 2.64548
    Cl(r) = -1.09315

forceCoeffs canard_7 write:
    Cm    = 2.28076
    Cd    = 0.321347
    Cl    = 1.55233
    Cl(f) = 3.05692
    Cl(r) = -1.50459

forceCoeffs canard_8 write:
    Cm    = 2.6922
    Cd    = 0.321347
    Cl    = 1.55233
    Cl(f) = 3.46836
    Cl(r) = -1.91603

forceCoeffs canard_9 write:
    Cm    = 3.10364
    Cd    = 0.321347
    Cl    = 1.55233
    Cl(f) = 3.87981
    Cl(r) = -2.32747

forceCoeffs canard_10 write:
    Cm    = 3.51508
    Cd    = 0.321347
    Cl    = 1.55233
    Cl(f) = 4.29125
    Cl(r) = -2.73892

forceCoeffs canard_11 write:
    Cm    = 3.92652
    Cd    = 0.321347
    Cl    = 1.55233
    Cl(f) = 4.70269
    Cl(r) = -3.15036

Time = 30s

smoothSolver:  Solving for Ux, Initial residual = 0.00318919, Final residual = 0.000165849, No Iterations 4
smoothSolver:  Solving for Uy, Initial residual = 0.00214237, Final residual = 0.000111803, No Iterations 4
smoothSolver:  Solving for Uz, Initial residual = 0.0198752, Final residual = 0.000995976, No Iterations 4
GAMG:  Solving for p, Initial residual = 0.0228993, Final residual = 0.00106044, No Iterations 3
time step continuity errors : sum local = 0.000156838, global = 1.09878e-06, cumulative = 0.000137889
smoothSolver:  Solving for nuTilda, Initial residual = 0.019703, Final residual = 0.000754709, No Iterations 2
bounding nuTilda, min: -0.0110056 max: 0.0602134 average: 0.0146793
ExecutionTime = 324.015 s  ClockTime = 325 s

forceCoeffs canard_1 write:
    Cm    = -0.193772
    Cd    = 0.335039
    Cl    = 1.58963
    Cl(f) = 0.601041
    Cl(r) = 0.988585

forceCoeffs canard_2 write:
    Cm    = 0.228091
    Cd    = 0.335039
    Cl    = 1.58963
    Cl(f) = 1.0229
    Cl(r) = 0.566722

forceCoeffs canard_3 write:
    Cm    = 0.649953
    Cd    = 0.335039
    Cl    = 1.58963
    Cl(f) = 1.44477
    Cl(r) = 0.14486

forceCoeffs canard_4 write:
    Cm    = 1.07181
    Cd    = 0.335039
    Cl    = 1.58963
    Cl(f) = 1.86663
    Cl(r) = -0.277002

forceCoeffs canard_5 write:
    Cm    = 1.49368
    Cd    = 0.335039
    Cl    = 1.58963
    Cl(f) = 2.28849
    Cl(r) = -0.698864

forceCoeffs canard_6 write:
    Cm    = 1.91554
    Cd    = 0.335039
    Cl    = 1.58963
    Cl(f) = 2.71035
    Cl(r) = -1.12073

forceCoeffs canard_7 write:
    Cm    = 2.3374
    Cd    = 0.335039
    Cl    = 1.58963
    Cl(f) = 3.13221
    Cl(r) = -1.54259

forceCoeffs canard_8 write:
    Cm    = 2.75926
    Cd    = 0.335039
    Cl    = 1.58963
    Cl(f) = 3.55408
    Cl(r) = -1.96445

forceCoeffs canard_9 write:
    Cm    = 3.18113
    Cd    = 0.335039
    Cl    = 1.58963
    Cl(f) = 3.97594
    Cl(r) = -2.38631

forceCoeffs canard_10 write:
    Cm    = 3.60299
    Cd    = 0.335039
    Cl    = 1.58963
    Cl(f) = 4.3978
    Cl(r) = -2.80818

forceCoeffs canard_11 write:
    Cm    = 4.02485
    Cd    = 0.335039
    Cl    = 1.58963
    Cl(f) = 4.81966
    Cl(r) = -3.23004

Time = 31s

smoothSolver:  Solving for Ux, Initial residual = 0.00318233, Final residual = 0.000165229, No Iterations 4
smoothSolver:  Solving for Uy, Initial residual = 0.00221037, Final residual = 0.000114419, No Iterations 4
smoothSolver:  Solving for Uz, Initial residual = 0.0201985, Final residual = 0.00098206, No Iterations 4
GAMG:  Solving for p, Initial residual = 0.0197821, Final residual = 0.00166922, No Iterations 2
time step continuity errors : sum local = 0.000258189, global = -2.37782e-05, cumulative = 0.000114111
smoothSolver:  Solving for nuTilda, Initial residual = 0.0199115, Final residual = 0.000912791, No Iterations 2
bounding nuTilda, min: -0.00942459 max: 0.0602134 average: 0.0146653
ExecutionTime = 333.46 s  ClockTime = 334 s

forceCoeffs canard_1 write:
    Cm    = -0.189029
    Cd    = 0.331242
    Cl    = 1.59418
    Cl(f) = 0.608062
    Cl(r) = 0.986121

forceCoeffs canard_2 write:
    Cm    = 0.233616
    Cd    = 0.331242
    Cl    = 1.59418
    Cl(f) = 1.03071
    Cl(r) = 0.563476

forceCoeffs canard_3 write:
    Cm    = 0.65626
    Cd    = 0.331242
    Cl    = 1.59418
    Cl(f) = 1.45335
    Cl(r) = 0.140831

forceCoeffs canard_4 write:
    Cm    = 1.0789
    Cd    = 0.331242
    Cl    = 1.59418
    Cl(f) = 1.876
    Cl(r) = -0.281814

forceCoeffs canard_5 write:
    Cm    = 1.50155
    Cd    = 0.331242
    Cl    = 1.59418
    Cl(f) = 2.29864
    Cl(r) = -0.704458

forceCoeffs canard_6 write:
    Cm    = 1.92419
    Cd    = 0.331242
    Cl    = 1.59418
    Cl(f) = 2.72129
    Cl(r) = -1.1271

forceCoeffs canard_7 write:
    Cm    = 2.34684
    Cd    = 0.331242
    Cl    = 1.59418
    Cl(f) = 3.14393
    Cl(r) = -1.54975

forceCoeffs canard_8 write:
    Cm    = 2.76948
    Cd    = 0.331242
    Cl    = 1.59418
    Cl(f) = 3.56658
    Cl(r) = -1.97239

forceCoeffs canard_9 write:
    Cm    = 3.19213
    Cd    = 0.331242
    Cl    = 1.59418
    Cl(f) = 3.98922
    Cl(r) = -2.39504

forceCoeffs canard_10 write:
    Cm    = 3.61477
    Cd    = 0.331242
    Cl    = 1.59418
    Cl(f) = 4.41186
    Cl(r) = -2.81768

forceCoeffs canard_11 write:
    Cm    = 4.03742
    Cd    = 0.331242
    Cl    = 1.59418
    Cl(f) = 4.83451
    Cl(r) = -3.24033

Time = 32s

smoothSolver:  Solving for Ux, Initial residual = 0.00311239, Final residual = 0.00016031, No Iterations 4
smoothSolver:  Solving for Uy, Initial residual = 0.0022137, Final residual = 0.000114259, No Iterations 4
smoothSolver:  Solving for Uz, Initial residual = 0.0195243, Final residual = 0.000935688, No Iterations 4
GAMG:  Solving for p, Initial residual = 0.0195612, Final residual = 0.0017156, No Iterations 2
time step continuity errors : sum local = 0.000267306, global = -1.07085e-05, cumulative = 0.000103402
smoothSolver:  Solving for nuTilda, Initial residual = 0.0185179, Final residual = 0.000807289, No Iterations 2
bounding nuTilda, min: -0.0105533 max: 0.0602134 average: 0.0146523
ExecutionTime = 342.644 s  ClockTime = 343 s

forceCoeffs canard_1 write:
    Cm    = -0.176385
    Cd    = 0.315014
    Cl    = 1.57535
    Cl(f) = 0.61129
    Cl(r) = 0.964059

forceCoeffs canard_2 write:
    Cm    = 0.240162
    Cd    = 0.315014
    Cl    = 1.57535
    Cl(f) = 1.02784
    Cl(r) = 0.547512

forceCoeffs canard_3 write:
    Cm    = 0.656709
    Cd    = 0.315014
    Cl    = 1.57535
    Cl(f) = 1.44438
    Cl(r) = 0.130966

forceCoeffs canard_4 write:
    Cm    = 1.07326
    Cd    = 0.315014
    Cl    = 1.57535
    Cl(f) = 1.86093
    Cl(r) = -0.285581

forceCoeffs canard_5 write:
    Cm    = 1.4898
    Cd    = 0.315014
    Cl    = 1.57535
    Cl(f) = 2.27748
    Cl(r) = -0.702128

forceCoeffs canard_6 write:
    Cm    = 1.90635
    Cd    = 0.315014
    Cl    = 1.57535
    Cl(f) = 2.69402
    Cl(r) = -1.11867

forceCoeffs canard_7 write:
    Cm    = 2.3229
    Cd    = 0.315014
    Cl    = 1.57535
    Cl(f) = 3.11057
    Cl(r) = -1.53522

forceCoeffs canard_8 write:
    Cm    = 2.73944
    Cd    = 0.315014
    Cl    = 1.57535
    Cl(f) = 3.52712
    Cl(r) = -1.95177

forceCoeffs canard_9 write:
    Cm    = 3.15599
    Cd    = 0.315014
    Cl    = 1.57535
    Cl(f) = 3.94366
    Cl(r) = -2.36832

forceCoeffs canard_10 write:
    Cm    = 3.57254
    Cd    = 0.315014
    Cl    = 1.57535
    Cl(f) = 4.36021
    Cl(r) = -2.78486

forceCoeffs canard_11 write:
    Cm    = 3.98908
    Cd    = 0.315014
    Cl    = 1.57535
    Cl(f) = 4.77676
    Cl(r) = -3.20141

Time = 33s

smoothSolver:  Solving for Ux, Initial residual = 0.00298153, Final residual = 0.000153122, No Iterations 4
smoothSolver:  Solving for Uy, Initial residual = 0.00217975, Final residual = 0.000113295, No Iterations 4
smoothSolver:  Solving for Uz, Initial residual = 0.0179811, Final residual = 0.000859255, No Iterations 4
GAMG:  Solving for p, Initial residual = 0.018402, Final residual = 0.00168368, No Iterations 2
time step continuity errors : sum local = 0.000258173, global = -3.00565e-06, cumulative = 0.000100396
smoothSolver:  Solving for nuTilda, Initial residual = 0.0194495, Final residual = 0.000923401, No Iterations 2
bounding nuTilda, min: -0.0105741 max: 0.0602134 average: 0.0146392
ExecutionTime = 351.885 s  ClockTime = 353 s

forceCoeffs canard_1 write:
    Cm    = -0.164156
    Cd    = 0.297376
    Cl    = 1.54892
    Cl(f) = 0.610302
    Cl(r) = 0.938614

forceCoeffs canard_2 write:
    Cm    = 0.244293
    Cd    = 0.297376
    Cl    = 1.54892
    Cl(f) = 1.01875
    Cl(r) = 0.530165

forceCoeffs canard_3 write:
    Cm    = 0.652743
    Cd    = 0.297376
    Cl    = 1.54892
    Cl(f) = 1.4272
    Cl(r) = 0.121715

forceCoeffs canard_4 write:
    Cm    = 1.06119
    Cd    = 0.297376
    Cl    = 1.54892
    Cl(f) = 1.83565
    Cl(r) = -0.286734

forceCoeffs canard_5 write:
    Cm    = 1.46964
    Cd    = 0.297376
    Cl    = 1.54892
    Cl(f) = 2.2441
    Cl(r) = -0.695184

forceCoeffs canard_6 write:
    Cm    = 1.87809
    Cd    = 0.297376
    Cl    = 1.54892
    Cl(f) = 2.65255
    Cl(r) = -1.10363

forceCoeffs canard_7 write:
    Cm    = 2.28654
    Cd    = 0.297376
    Cl    = 1.54892
    Cl(f) = 3.061
    Cl(r) = -1.51208

forceCoeffs canard_8 write:
    Cm    = 2.69499
    Cd    = 0.297376
    Cl    = 1.54892
    Cl(f) = 3.46945
    Cl(r) = -1.92053

forceCoeffs canard_9 write:
    Cm    = 3.10344
    Cd    = 0.297376
    Cl    = 1.54892
    Cl(f) = 3.8779
    Cl(r) = -2.32898

forceCoeffs canard_10 write:
    Cm    = 3.51189
    Cd    = 0.297376
    Cl    = 1.54892
    Cl(f) = 4.28635
    Cl(r) = -2.73743

forceCoeffs canard_11 write:
    Cm    = 3.92034
    Cd    = 0.297376
    Cl    = 1.54892
    Cl(f) = 4.6948
    Cl(r) = -3.14588

Time = 34s

smoothSolver:  Solving for Ux, Initial residual = 0.00285735, Final residual = 0.000146884, No Iterations 4
smoothSolver:  Solving for Uy, Initial residual = 0.00213847, Final residual = 0.000113504, No Iterations 4
smoothSolver:  Solving for Uz, Initial residual = 0.0164977, Final residual = 0.000804027, No Iterations 4
GAMG:  Solving for p, Initial residual = 0.0171424, Final residual = 0.00149279, No Iterations 2
time step continuity errors : sum local = 0.000223936, global = 6.79362e-06, cumulative = 0.00010719
smoothSolver:  Solving for nuTilda, Initial residual = 0.0185172, Final residual = 0.000868639, No Iterations 2
bounding nuTilda, min: -0.00958984 max: 0.0602134 average: 0.0146259
ExecutionTime = 361.048 s  ClockTime = 362 s

forceCoeffs canard_1 write:
    Cm    = -0.159376
    Cd    = 0.289093
    Cl    = 1.53474
    Cl(f) = 0.607993
    Cl(r) = 0.926746

forceCoeffs canard_2 write:
    Cm    = 0.244835
    Cd    = 0.289093
    Cl    = 1.53474
    Cl(f) = 1.0122
    Cl(r) = 0.522534

forceCoeffs canard_3 write:
    Cm    = 0.649047
    Cd    = 0.289093
    Cl    = 1.53474
    Cl(f) = 1.41642
    Cl(r) = 0.118322

forceCoeffs canard_4 write:
    Cm    = 1.05326
    Cd    = 0.289093
    Cl    = 1.53474
    Cl(f) = 1.82063
    Cl(r) = -0.28589

forceCoeffs canard_5 write:
    Cm    = 1.45747
    Cd    = 0.289093
    Cl    = 1.53474
    Cl(f) = 2.22484
    Cl(r) = -0.690102

[...]
    Cl(f) = 4.64656
    Cl(r) = -3.10459

Time = 492s

smoothSolver:  Solving for Ux, Initial residual = 4.17102e-05, Final residual = 1.57535e-06, No Iterations 4
smoothSolver:  Solving for Uy, Initial residual = 2.20822e-05, Final residual = 1.08686e-06, No Iterations 4
smoothSolver:  Solving for Uz, Initial residual = 0.00014605, Final residual = 7.18033e-06, No Iterations 4
GAMG:  Solving for p, Initial residual = 0.000354592, Final residual = 1.717e-05, No Iterations 2
time step continuity errors : sum local = 3.09478e-06, global = -4.06721e-07, cumulative = -0.000163663
smoothSolver:  Solving for nuTilda, Initial residual = 0.0176449, Final residual = 0.000406297, No Iterations 2
bounding nuTilda, min: -0.00748725 max: 0.107942 average: 0.0151908
ExecutionTime = 5159.15 s  ClockTime = 19643 s

forceCoeffs canard_1 write:
    Cm    = -0.200597
    Cd    = 0.307099
    Cl    = 1.54201
    Cl(f) = 0.570409
    Cl(r) = 0.971604

forceCoeffs canard_2 write:
    Cm    = 0.207023
    Cd    = 0.307099
    Cl    = 1.54201
    Cl(f) = 0.978029
    Cl(r) = 0.563984

forceCoeffs canard_3 write:
    Cm    = 0.614643
    Cd    = 0.307099
    Cl    = 1.54201
    Cl(f) = 1.38565
    Cl(r) = 0.156363

forceCoeffs canard_4 write:
    Cm    = 1.02226
    Cd    = 0.307099
    Cl    = 1.54201
    Cl(f) = 1.79327
    Cl(r) = -0.251257

forceCoeffs canard_5 write:
    Cm    = 1.42988
    Cd    = 0.307099
    Cl    = 1.54201
    Cl(f) = 2.20089
    Cl(r) = -0.658877

forceCoeffs canard_6 write:
    Cm    = 1.8375
    Cd    = 0.307099
    Cl    = 1.54201
    Cl(f) = 2.60851
    Cl(r) = -1.0665

forceCoeffs canard_7 write:
    Cm    = 2.24512
    Cd    = 0.307099
    Cl    = 1.54201
    Cl(f) = 3.01613
    Cl(r) = -1.47412

forceCoeffs canard_8 write:
    Cm    = 2.65274
    Cd    = 0.307099
    Cl    = 1.54201
    Cl(f) = 3.42375
    Cl(r) = -1.88174

forceCoeffs canard_9 write:
    Cm    = 3.06036
    Cd    = 0.307099
    Cl    = 1.54201
    Cl(f) = 3.83137
    Cl(r) = -2.28936

forceCoeffs canard_10 write:
    Cm    = 3.46798
    Cd    = 0.307099
    Cl    = 1.54201
    Cl(f) = 4.23899
    Cl(r) = -2.69698

forceCoeffs canard_11 write:
    Cm    = 3.8756
    Cd    = 0.307099
    Cl    = 1.54201
    Cl(f) = 4.64661
    Cl(r) = -3.1046

Time = 493s

smoothSolver:  Solving for Ux, Initial residual = 4.19924e-05, Final residual = 1.56045e-06, No Iterations 4
smoothSolver:  Solving for Uy, Initial residual = 2.18484e-05, Final residual = 1.07314e-06, No Iterations 4
smoothSolver:  Solving for Uz, Initial residual = 0.000145971, Final residual = 7.13276e-06, No Iterations 4
GAMG:  Solving for p, Initial residual = 0.000347403, Final residual = 1.67396e-05, No Iterations 2
time step continuity errors : sum local = 3.01736e-06, global = 2.35439e-07, cumulative = -0.000163428
smoothSolver:  Solving for nuTilda, Initial residual = 0.0172248, Final residual = 0.000854846, No Iterations 2
bounding nuTilda, min: -0.00737584 max: 0.107948 average: 0.0151936
ExecutionTime = 5168.78 s  ClockTime = 19653 s

forceCoeffs canard_1 write:
    Cm    = -0.200676
    Cd    = 0.30711
    Cl    = 1.54206
    Cl(f) = 0.570355
    Cl(r) = 0.971707

forceCoeffs canard_2 write:
    Cm    = 0.206957
    Cd    = 0.30711
    Cl    = 1.54206
    Cl(f) = 0.977988
    Cl(r) = 0.564074

forceCoeffs canard_3 write:
    Cm    = 0.614591
    Cd    = 0.30711
    Cl    = 1.54206
    Cl(f) = 1.38562
    Cl(r) = 0.156441

forceCoeffs canard_4 write:
    Cm    = 1.02222
    Cd    = 0.30711
    Cl    = 1.54206
    Cl(f) = 1.79325
    Cl(r) = -0.251193

forceCoeffs canard_5 write:
    Cm    = 1.42986
    Cd    = 0.30711
    Cl    = 1.54206
    Cl(f) = 2.20089
    Cl(r) = -0.658826

forceCoeffs canard_6 write:
    Cm    = 1.83749
    Cd    = 0.30711
    Cl    = 1.54206
    Cl(f) = 2.60852
    Cl(r) = -1.06646

forceCoeffs canard_7 write:
    Cm    = 2.24512
    Cd    = 0.30711
    Cl    = 1.54206
    Cl(f) = 3.01615
    Cl(r) = -1.47409

forceCoeffs canard_8 write:
    Cm    = 2.65276
    Cd    = 0.30711
    Cl    = 1.54206
    Cl(f) = 3.42379
    Cl(r) = -1.88173

forceCoeffs canard_9 write:
    Cm    = 3.06039
    Cd    = 0.30711
    Cl    = 1.54206
    Cl(f) = 3.83142
    Cl(r) = -2.28936

forceCoeffs canard_10 write:
    Cm    = 3.46802
    Cd    = 0.30711
    Cl    = 1.54206
    Cl(f) = 4.23905
    Cl(r) = -2.69699

forceCoeffs canard_11 write:
    Cm    = 3.87566
    Cd    = 0.30711
    Cl    = 1.54206
    Cl(f) = 4.64669
    Cl(r) = -3.10463

Time = 494s

smoothSolver:  Solving for Ux, Initial residual = 4.17533e-05, Final residual = 1.55619e-06, No Iterations 4
smoothSolver:  Solving for Uy, Initial residual = 2.17989e-05, Final residual = 1.05951e-06, No Iterations 4
smoothSolver:  Solving for Uz, Initial residual = 0.000145091, Final residual = 7.06414e-06, No Iterations 4
GAMG:  Solving for p, Initial residual = 0.000349886, Final residual = 1.55383e-05, No Iterations 2
time step continuity errors : sum local = 2.80112e-06, global = -1.18581e-07, cumulative = -0.000163546
smoothSolver:  Solving for nuTilda, Initial residual = 0.0177014, Final residual = 0.000652038, No Iterations 2
bounding nuTilda, min: -0.00773388 max: 0.107991 average: 0.015191
ExecutionTime = 5179.09 s  ClockTime = 19663 s

forceCoeffs canard_1 write:
    Cm    = -0.200776
    Cd    = 0.307136
    Cl    = 1.54213
    Cl(f) = 0.570286
    Cl(r) = 0.971839

forceCoeffs canard_2 write:
    Cm    = 0.206875
    Cd    = 0.307136
    Cl    = 1.54213
    Cl(f) = 0.977937
    Cl(r) = 0.564188

forceCoeffs canard_3 write:
    Cm    = 0.614526
    Cd    = 0.307136
    Cl    = 1.54213
    Cl(f) = 1.38559
    Cl(r) = 0.156537

forceCoeffs canard_4 write:
    Cm    = 1.02218
    Cd    = 0.307136
    Cl    = 1.54213
    Cl(f) = 1.79324
    Cl(r) = -0.251115

forceCoeffs canard_5 write:
    Cm    = 1.42983
    Cd    = 0.307136
    Cl    = 1.54213
    Cl(f) = 2.20089
    Cl(r) = -0.658766

forceCoeffs canard_6 write:
    Cm    = 1.83748
    Cd    = 0.307136
    Cl    = 1.54213
    Cl(f) = 2.60854
    Cl(r) = -1.06642

forceCoeffs canard_7 write:
    Cm    = 2.24513
    Cd    = 0.307136
    Cl    = 1.54213
    Cl(f) = 3.01619
    Cl(r) = -1.47407

forceCoeffs canard_8 write:
    Cm    = 2.65278
    Cd    = 0.307136
    Cl    = 1.54213
    Cl(f) = 3.42384
    Cl(r) = -1.88172

forceCoeffs canard_9 write:
    Cm    = 3.06043
    Cd    = 0.307136
    Cl    = 1.54213
    Cl(f) = 3.8315
    Cl(r) = -2.28937

forceCoeffs canard_10 write:
    Cm    = 3.46808
    Cd    = 0.307136
    Cl    = 1.54213
    Cl(f) = 4.23915
    Cl(r) = -2.69702

forceCoeffs canard_11 write:
    Cm    = 3.87574
    Cd    = 0.307136
    Cl    = 1.54213
    Cl(f) = 4.6468
    Cl(r) = -3.10467

Time = 495s

smoothSolver:  Solving for Ux, Initial residual = 4.11564e-05, Final residual = 1.54492e-06, No Iterations 4
smoothSolver:  Solving for Uy, Initial residual = 2.15467e-05, Final residual = 1.04603e-06, No Iterations 4
smoothSolver:  Solving for Uz, Initial residual = 0.000144227, Final residual = 6.99069e-06, No Iterations 4
GAMG:  Solving for p, Initial residual = 0.000351716, Final residual = 1.63592e-05, No Iterations 2
time step continuity errors : sum local = 2.94941e-06, global = -3.23315e-07, cumulative = -0.00016387
smoothSolver:  Solving for nuTilda, Initial residual = 0.0177083, Final residual = 0.000405382, No Iterations 2
bounding nuTilda, min: -0.00726454 max: 0.108072 average: 0.015194
ExecutionTime = 5188.82 s  ClockTime = 19673 s

forceCoeffs canard_1 write:
    Cm    = -0.200868
    Cd    = 0.30717
    Cl    = 1.54219
    Cl(f) = 0.570226
    Cl(r) = 0.971961

forceCoeffs canard_2 write:
    Cm    = 0.206802
    Cd    = 0.30717
    Cl    = 1.54219
    Cl(f) = 0.977895
    Cl(r) = 0.564291

forceCoeffs canard_3 write:
    Cm    = 0.614471
    Cd    = 0.30717
    Cl    = 1.54219
    Cl(f) = 1.38556
    Cl(r) = 0.156622

forceCoeffs canard_4 write:
    Cm    = 1.02214
    Cd    = 0.30717
    Cl    = 1.54219
    Cl(f) = 1.79323
    Cl(r) = -0.251047

forceCoeffs canard_5 write:
    Cm    = 1.42981
    Cd    = 0.30717
    Cl    = 1.54219
    Cl(f) = 2.2009
    Cl(r) = -0.658717

forceCoeffs canard_6 write:
    Cm    = 1.83748
    Cd    = 0.30717
    Cl    = 1.54219
    Cl(f) = 2.60857
    Cl(r) = -1.06639

forceCoeffs canard_7 write:
    Cm    = 2.24515
    Cd    = 0.30717
    Cl    = 1.54219
    Cl(f) = 3.01624
    Cl(r) = -1.47406

forceCoeffs canard_8 write:
    Cm    = 2.65282
    Cd    = 0.30717
    Cl    = 1.54219
    Cl(f) = 3.42391
    Cl(r) = -1.88172

forceCoeffs canard_9 write:
    Cm    = 3.06049
    Cd    = 0.30717
    Cl    = 1.54219
    Cl(f) = 3.83158
    Cl(r) = -2.28939

forceCoeffs canard_10 write:
    Cm    = 3.46816
    Cd    = 0.30717
    Cl    = 1.54219
    Cl(f) = 4.23925
    Cl(r) = -2.69706

forceCoeffs canard_11 write:
    Cm    = 3.87583
    Cd    = 0.30717
    Cl    = 1.54219
    Cl(f) = 4.64692
    Cl(r) = -3.10473

Time = 496s

smoothSolver:  Solving for Ux, Initial residual = 4.15846e-05, Final residual = 1.5307e-06, No Iterations 4
smoothSolver:  Solving for Uy, Initial residual = 2.13874e-05, Final residual = 1.03168e-06, No Iterations 4
smoothSolver:  Solving for Uz, Initial residual = 0.000143038, Final residual = 6.91455e-06, No Iterations 4
GAMG:  Solving for p, Initial residual = 0.00034781, Final residual = 1.66156e-05, No Iterations 2
time step continuity errors : sum local = 2.99585e-06, global = 1.38864e-07, cumulative = -0.000163731
smoothSolver:  Solving for nuTilda, Initial residual = 0.0174121, Final residual = 0.000859561, No Iterations 2
bounding nuTilda, min: -0.00761097 max: 0.108146 average: 0.0151912
ExecutionTime = 5199.84 s  ClockTime = 19684 s

forceCoeffs canard_1 write:
    Cm    = -0.200973
    Cd    = 0.307204
    Cl    = 1.54225
    Cl(f) = 0.570152
    Cl(r) = 0.972098

forceCoeffs canard_2 write:
    Cm    = 0.206715
    Cd    = 0.307204
    Cl    = 1.54225
    Cl(f) = 0.97784
    Cl(r) = 0.56441

forceCoeffs canard_3 write:
    Cm    = 0.614403
    Cd    = 0.307204
    Cl    = 1.54225
    Cl(f) = 1.38553
    Cl(r) = 0.156722

forceCoeffs canard_4 write:
    Cm    = 1.02209
    Cd    = 0.307204
    Cl    = 1.54225
    Cl(f) = 1.79322
    Cl(r) = -0.250966

forceCoeffs canard_5 write:
    Cm    = 1.42978
    Cd    = 0.307204
    Cl    = 1.54225
    Cl(f) = 2.2009
    Cl(r) = -0.658654

forceCoeffs canard_6 write:
    Cm    = 1.83747
    Cd    = 0.307204
    Cl    = 1.54225
    Cl(f) = 2.60859
    Cl(r) = -1.06634

forceCoeffs canard_7 write:
    Cm    = 2.24516
    Cd    = 0.307204
    Cl    = 1.54225
    Cl(f) = 3.01628
    Cl(r) = -1.47403

forceCoeffs canard_8 write:
    Cm    = 2.65284
    Cd    = 0.307204
    Cl    = 1.54225
    Cl(f) = 3.42397
    Cl(r) = -1.88172

forceCoeffs canard_9 write:
    Cm    = 3.06053
    Cd    = 0.307204
    Cl    = 1.54225
    Cl(f) = 3.83166
    Cl(r) = -2.28941

forceCoeffs canard_10 write:
    Cm    = 3.46822
    Cd    = 0.307204
    Cl    = 1.54225
    Cl(f) = 4.23935
    Cl(r) = -2.6971

forceCoeffs canard_11 write:
    Cm    = 3.87591
    Cd    = 0.307204
    Cl    = 1.54225
    Cl(f) = 4.64703
    Cl(r) = -3.10478

Time = 497s

smoothSolver:  Solving for Ux, Initial residual = 4.11444e-05, Final residual = 1.52607e-06, No Iterations 4
smoothSolver:  Solving for Uy, Initial residual = 2.12641e-05, Final residual = 1.01902e-06, No Iterations 4
smoothSolver:  Solving for Uz, Initial residual = 0.000141445, Final residual = 6.83151e-06, No Iterations 4
GAMG:  Solving for p, Initial residual = 0.000349055, Final residual = 1.56329e-05, No Iterations 2
time step continuity errors : sum local = 2.81906e-06, global = 3.13528e-09, cumulative = -0.000163728
smoothSolver:  Solving for nuTilda, Initial residual = 0.0175982, Final residual = 0.000652704, No Iterations 2
bounding nuTilda, min: -0.00599292 max: 0.108213 average: 0.0151943
ExecutionTime = 5209.89 s  ClockTime = 19694 s

forceCoeffs canard_1 write:
    Cm    = -0.201067
    Cd    = 0.307245
    Cl    = 1.5423
    Cl(f) = 0.570083
    Cl(r) = 0.972217

forceCoeffs canard_2 write:
    Cm    = 0.206637
    Cd    = 0.307245
    Cl    = 1.5423
    Cl(f) = 0.977787
    Cl(r) = 0.564513

forceCoeffs canard_3 write:
    Cm    = 0.614341
    Cd    = 0.307245
    Cl    = 1.5423
    Cl(f) = 1.38549
    Cl(r) = 0.156809

forceCoeffs canard_4 write:
    Cm    = 1.02205
    Cd    = 0.307245
    Cl    = 1.5423
    Cl(f) = 1.7932
    Cl(r) = -0.250896

forceCoeffs canard_5 write:
    Cm    = 1.42975
    Cd    = 0.307245
    Cl    = 1.5423
    Cl(f) = 2.2009
    Cl(r) = -0.6586

forceCoeffs canard_6 write:
    Cm    = 1.83745
    Cd    = 0.307245
    Cl    = 1.5423
    Cl(f) = 2.6086
    Cl(r) = -1.0663

forceCoeffs canard_7 write:
    Cm    = 2.24516
    Cd    = 0.307245
    Cl    = 1.5423
    Cl(f) = 3.01631
    Cl(r) = -1.47401

forceCoeffs canard_8 write:
    Cm    = 2.65286
    Cd    = 0.307245
    Cl    = 1.5423
    Cl(f) = 3.42401
    Cl(r) = -1.88171

forceCoeffs canard_9 write:
    Cm    = 3.06057
    Cd    = 0.307245
    Cl    = 1.5423
    Cl(f) = 3.83172
    Cl(r) = -2.28942

forceCoeffs canard_10 write:
    Cm    = 3.46827
    Cd    = 0.307245
    Cl    = 1.5423
    Cl(f) = 4.23942
    Cl(r) = -2.69712

forceCoeffs canard_11 write:
    Cm    = 3.87597
    Cd    = 0.307245
    Cl    = 1.5423
    Cl(f) = 4.64712
    Cl(r) = -3.10482

Time = 498s

smoothSolver:  Solving for Ux, Initial residual = 4.06441e-05, Final residual = 1.51796e-06, No Iterations 4
smoothSolver:  Solving for Uy, Initial residual = 2.11454e-05, Final residual = 1.00907e-06, No Iterations 4
smoothSolver:  Solving for Uz, Initial residual = 0.000140541, Final residual = 6.77039e-06, No Iterations 4
GAMG:  Solving for p, Initial residual = 0.000349847, Final residual = 1.67571e-05, No Iterations 2
time step continuity errors : sum local = 3.02204e-06, global = -3.75144e-07, cumulative = -0.000164103
smoothSolver:  Solving for nuTilda, Initial residual = 0.017643, Final residual = 0.000406144, No Iterations 2
bounding nuTilda, min: -0.00748304 max: 0.108273 average: 0.0151917
ExecutionTime = 5219.02 s  ClockTime = 19703 s

forceCoeffs canard_1 write:
    Cm    = -0.201169
    Cd    = 0.307292
    Cl    = 1.54234
    Cl(f) = 0.569999
    Cl(r) = 0.972337

forceCoeffs canard_2 write:
    Cm    = 0.206548
    Cd    = 0.307292
    Cl    = 1.54234
    Cl(f) = 0.977716
    Cl(r) = 0.56462

forceCoeffs canard_3 write:
    Cm    = 0.614265
    Cd    = 0.307292
    Cl    = 1.54234
    Cl(f) = 1.38543
    Cl(r) = 0.156903

forceCoeffs canard_4 write:
    Cm    = 1.02198
    Cd    = 0.307292
    Cl    = 1.54234
    Cl(f) = 1.79315
    Cl(r) = -0.250814

forceCoeffs canard_5 write:
    Cm    = 1.4297
    Cd    = 0.307292
    Cl    = 1.54234
    Cl(f) = 2.20087
    Cl(r) = -0.658532

forceCoeffs canard_6 write:
    Cm    = 1.83742
    Cd    = 0.307292
    Cl    = 1.54234
    Cl(f) = 2.60858
    Cl(r) = -1.06625

forceCoeffs canard_7 write:
    Cm    = 2.24513
    Cd    = 0.307292
    Cl    = 1.54234
    Cl(f) = 3.0163
    Cl(r) = -1.47397

forceCoeffs canard_8 write:
    Cm    = 2.65285
    Cd    = 0.307292
    Cl    = 1.54234
    Cl(f) = 3.42402
    Cl(r) = -1.88168

forceCoeffs canard_9 write:
    Cm    = 3.06057
    Cd    = 0.307292
    Cl    = 1.54234
    Cl(f) = 3.83174
    Cl(r) = -2.2894

forceCoeffs canard_10 write:
    Cm    = 3.46829
    Cd    = 0.307292
    Cl    = 1.54234
    Cl(f) = 4.23945
    Cl(r) = -2.69712

forceCoeffs canard_11 write:
    Cm    = 3.876
    Cd    = 0.307292
    Cl    = 1.54234
    Cl(f) = 4.64717
    Cl(r) = -3.10483

Time = 499s

smoothSolver:  Solving for Ux, Initial residual = 4.08819e-05, Final residual = 1.50435e-06, No Iterations 4
smoothSolver:  Solving for Uy, Initial residual = 2.09731e-05, Final residual = 9.98874e-07, No Iterations 4
smoothSolver:  Solving for Uz, Initial residual = 0.000140415, Final residual = 6.71914e-06, No Iterations 4
GAMG:  Solving for p, Initial residual = 0.000347662, Final residual = 1.7195e-05, No Iterations 2
time step continuity errors : sum local = 3.10128e-06, global = 2.54757e-07, cumulative = -0.000163848
smoothSolver:  Solving for nuTilda, Initial residual = 0.0172231, Final residual = 0.000854696, No Iterations 2
bounding nuTilda, min: -0.00737259 max: 0.108324 average: 0.0151946
ExecutionTime = 5228.44 s  ClockTime = 19713 s

forceCoeffs canard_1 write:
    Cm    = -0.201241
    Cd    = 0.307318
    Cl    = 1.54235
    Cl(f) = 0.569933
    Cl(r) = 0.972414

forceCoeffs canard_2 write:
    Cm    = 0.206482
    Cd    = 0.307318
    Cl    = 1.54235
    Cl(f) = 0.977655
    Cl(r) = 0.564692

forceCoeffs canard_3 write:
    Cm    = 0.614204
    Cd    = 0.307318
    Cl    = 1.54235
    Cl(f) = 1.38538
    Cl(r) = 0.15697

forceCoeffs canard_4 write:
    Cm    = 1.02193
    Cd    = 0.307318
    Cl    = 1.54235
    Cl(f) = 1.7931
    Cl(r) = -0.250753

forceCoeffs canard_5 write:
    Cm    = 1.42965
    Cd    = 0.307318
    Cl    = 1.54235
    Cl(f) = 2.20082
    Cl(r) = -0.658475

forceCoeffs canard_6 write:
    Cm    = 1.83737
    Cd    = 0.307318
    Cl    = 1.54235
    Cl(f) = 2.60854
    Cl(r) = -1.0662

forceCoeffs canard_7 write:
    Cm    = 2.24509
    Cd    = 0.307318
    Cl    = 1.54235
    Cl(f) = 3.01627
    Cl(r) = -1.47392

forceCoeffs canard_8 write:
    Cm    = 2.65281
    Cd    = 0.307318
    Cl    = 1.54235
    Cl(f) = 3.42399
    Cl(r) = -1.88164

forceCoeffs canard_9 write:
    Cm    = 3.06054
    Cd    = 0.307318
    Cl    = 1.54235
    Cl(f) = 3.83171
    Cl(r) = -2.28936

forceCoeffs canard_10 write:
    Cm    = 3.46826
    Cd    = 0.307318
    Cl    = 1.54235
    Cl(f) = 4.23943
    Cl(r) = -2.69709

forceCoeffs canard_11 write:
    Cm    = 3.87598
    Cd    = 0.307318
    Cl    = 1.54235
    Cl(f) = 4.64715
    Cl(r) = -3.10481

Time = 500s

smoothSolver:  Solving for Ux, Initial residual = 4.06707e-05, Final residual = 1.5008e-06, No Iterations 4
smoothSolver:  Solving for Uy, Initial residual = 2.09777e-05, Final residual = 9.89839e-07, No Iterations 4
smoothSolver:  Solving for Uz, Initial residual = 0.000139826, Final residual = 6.6634e-06, No Iterations 4
GAMG:  Solving for p, Initial residual = 0.000348821, Final residual = 1.61265e-05, No Iterations 2
time step continuity errors : sum local = 2.90886e-06, global = -1.00348e-07, cumulative = -0.000163948
smoothSolver:  Solving for nuTilda, Initial residual = 0.0176996, Final residual = 0.000651866, No Iterations 2
bounding nuTilda, min: -0.00772773 max: 0.108368 average: 0.015192
ExecutionTime = 5243 s  ClockTime = 19727 s

forceCoeffs canard_1 write:
    Cm    = -0.201308
    Cd    = 0.307327
    Cl    = 1.54234
    Cl(f) = 0.569862
    Cl(r) = 0.972479

forceCoeffs canard_2 write:
    Cm    = 0.206413
    Cd    = 0.307327
    Cl    = 1.54234
    Cl(f) = 0.977583
    Cl(r) = 0.564757

forceCoeffs canard_3 write:
    Cm    = 0.614135
    Cd    = 0.307327
    Cl    = 1.54234
    Cl(f) = 1.3853
    Cl(r) = 0.157036

forceCoeffs canard_4 write:
    Cm    = 1.02186
    Cd    = 0.307327
    Cl    = 1.54234
    Cl(f) = 1.79303
    Cl(r) = -0.250686

forceCoeffs canard_5 write:
    Cm    = 1.42958
    Cd    = 0.307327
    Cl    = 1.54234
    Cl(f) = 2.20075
    Cl(r) = -0.658407

forceCoeffs canard_6 write:
    Cm    = 1.8373
    Cd    = 0.307327
    Cl    = 1.54234
    Cl(f) = 2.60847
    Cl(r) = -1.06613

forceCoeffs canard_7 write:
    Cm    = 2.24502
    Cd    = 0.307327
    Cl    = 1.54234
    Cl(f) = 3.01619
    Cl(r) = -1.47385

forceCoeffs canard_8 write:
    Cm    = 2.65274
    Cd    = 0.307327
    Cl    = 1.54234
    Cl(f) = 3.42391
    Cl(r) = -1.88157

forceCoeffs canard_9 write:
    Cm    = 3.06046
    Cd    = 0.307327
    Cl    = 1.54234
    Cl(f) = 3.83163
    Cl(r) = -2.28929

forceCoeffs canard_10 write:
    Cm    = 3.46818
    Cd    = 0.307327
    Cl    = 1.54234
    Cl(f) = 4.23936
    Cl(r) = -2.69701

forceCoeffs canard_11 write:
    Cm    = 3.87591
    Cd    = 0.307327
    Cl    = 1.54234
    Cl(f) = 4.64708
    Cl(r) = -3.10474

End

Finalising parallel run
