
simpleFoam has been superseded and replaced by the more general
incompressibleFluid solver module executed by the foamRun application:

    foamRun -solver incompressibleFluid


simpleFoam has been superseded and replaced by the more general
incompressibleFluid solver module executed by the foamRun application:

    foamRun -solver incompressibleFluid


simpleFoam has been superseded and replaced by the more general
incompressibleFluid solver module executed by the foamRun application:

    foamRun -solver incompressibleFluid

/*---------------------------------------------------------------------------*\
  =========                 |
  \\      /  F ield         | OpenFOAM: The Open Source CFD Toolbox
   \\    /   O peration     | Website:  https://openfoam.org
    \\  /    A nd           | Version:  12
     \\/     M anipulation  |
\*---------------------------------------------------------------------------*/
Build  : 12-86e126a7bc4d
Exec   : foamRun -solver incompressibleFluid -parallel
Date   : Jun 24 2025
Time   : 01:30:43
Host   : "EmiAlamilla"
PID    : 69665
I/O    : uncollated
Case   : /home/emilianoalamilla/CFD/Aircraft/AoA_5
nProcs : 3
Slaves : 
2
(
"EmiAlamilla.69666"
"EmiAlamilla.69669"
)

Pstream initialised with:
    floatTransfer      : false
    nProcsSimpleSum    : 0
    commsType          : nonBlocking
    polling iterations : 0
sigFpe : Enabling floating point exception trapping (FOAM_SIGFPE).
fileModificationChecking : Monitoring run-time modified files using timeStampMaster (fileModificationSkew 10)
allowSystemOperations : Allowing user-supplied system call operations

// * * * * * * * * * * * * * * * * * * * * * * * * * * * * * * * * * * * * * //
Create time

Create mesh for time = 0

Selecting solver incompressibleFluid
Selecting viscosity model constant
Selecting turbulence model type RAS
Selecting RAS turbulence model SpalartAllmaras
RAS
{
    RASModel        SpalartAllmaras;
    turbulence      on;
    printCoeffs     on;
    sigmaNut        0.66666;
    kappa           0.41;
    Cb1             0.1355;
    Cb2             0.622;
    Cw2             0.3;
    Cw3             2;
    Cv1             7.1;
    Cs              0.3;
}

No MRF models present


SIMPLE: Convergence criteria found
        p: tolerance 1e-05
        U: tolerance 1e-05
        nuTilda: tolerance 1e-05


SIMPLE: Operating solver in steady-state mode with 1 outer corrector
SIMPLE: Operating solver in SIMPLE mode



Starting time loop

forcesBase canard_1:
    Not including porosity effects
forces canard_1:
    Not including porosity effects
forceCoeffs canard_1:
    Not including porosity effects
forcesBase canard_2:
    Not including porosity effects
forces canard_2:
    Not including porosity effects
forceCoeffs canard_2:
    Not including porosity effects
forcesBase canard_3:
    Not including porosity effects
forces canard_3:
    Not including porosity effects
forceCoeffs canard_3:
    Not including porosity effects
forcesBase canard_4:
    Not including porosity effects
forces canard_4:
    Not including porosity effects
forceCoeffs canard_4:
    Not including porosity effects
forcesBase canard_5:
    Not including porosity effects
forces canard_5:
    Not including porosity effects
forceCoeffs canard_5:
    Not including porosity effects
forcesBase canard_6:
    Not including porosity effects
forces canard_6:
    Not including porosity effects
forceCoeffs canard_6:
    Not including porosity effects
forcesBase canard_7:
    Not including porosity effects
forces canard_7:
    Not including porosity effects
forceCoeffs canard_7:
    Not including porosity effects
forcesBase canard_8:
    Not including porosity effects
forces canard_8:
    Not including porosity effects
forceCoeffs canard_8:
    Not including porosity effects
forcesBase canard_9:
    Not including porosity effects
forces canard_9:
    Not including porosity effects
forceCoeffs canard_9:
    Not including porosity effects
forcesBase canard_10:
    Not including porosity effects
forces canard_10:
    Not including porosity effects
forceCoeffs canard_10:
    Not including porosity effects
forcesBase canard_11:
    Not including porosity effects
forces canard_11:
    Not including porosity effects
forceCoeffs canard_11:
    Not including porosity effects
forceCoeffs canard_1 write:
    Cm    = 0.000163332
    Cd    = 0.00642459
    Cl    = 0.000139602
    Cl(f) = 0.000233133
    Cl(r) = -9.35313e-05

forceCoeffs canard_2 write:
    Cm    = 0.000346678
    Cd    = 0.00642459
    Cl    = 0.000139602
    Cl(f) = 0.000416479
    Cl(r) = -0.000276877

forceCoeffs canard_3 write:
    Cm    = 0.000530024
    Cd    = 0.00642459
    Cl    = 0.000139602
    Cl(f) = 0.000599825
    Cl(r) = -0.000460223

forceCoeffs canard_4 write:
    Cm    = 0.00071337
    Cd    = 0.00642459
    Cl    = 0.000139602
    Cl(f) = 0.000783171
    Cl(r) = -0.000643569

forceCoeffs canard_5 write:
    Cm    = 0.000896716
    Cd    = 0.00642459
    Cl    = 0.000139602
    Cl(f) = 0.000966517
    Cl(r) = -0.000826915

forceCoeffs canard_6 write:
    Cm    = 0.00108006
    Cd    = 0.00642459
    Cl    = 0.000139602
    Cl(f) = 0.00114986
    Cl(r) = -0.00101026

forceCoeffs canard_7 write:
    Cm    = 0.00126341
    Cd    = 0.00642459
    Cl    = 0.000139602
    Cl(f) = 0.00133321
    Cl(r) = -0.00119361

forceCoeffs canard_8 write:
    Cm    = 0.00144675
    Cd    = 0.00642459
    Cl    = 0.000139602
    Cl(f) = 0.00151655
    Cl(r) = -0.00137695

forceCoeffs canard_9 write:
    Cm    = 0.0016301
    Cd    = 0.00642459
    Cl    = 0.000139602
    Cl(f) = 0.0016999
    Cl(r) = -0.0015603

forceCoeffs canard_10 write:
    Cm    = 0.00181344
    Cd    = 0.00642459
    Cl    = 0.000139602
    Cl(f) = 0.00188325
    Cl(r) = -0.00174364

forceCoeffs canard_11 write:
    Cm    = 0.00199679
    Cd    = 0.00642459
    Cl    = 0.000139602
    Cl(f) = 0.00206659
    Cl(r) = -0.00192699

Time = 1s

smoothSolver:  Solving for Ux, Initial residual = 1, Final residual = 0.035445, No Iterations 4
smoothSolver:  Solving for Uy, Initial residual = 1, Final residual = 0.0251237, No Iterations 4
smoothSolver:  Solving for Uz, Initial residual = 1, Final residual = 0.0206568, No Iterations 4
GAMG:  Solving for p, Initial residual = 1, Final residual = 0.0897324, No Iterations 5
time step continuity errors : sum local = 0.000419598, global = -1.40581e-05, cumulative = -1.40581e-05
Selecting patchDistMethod meshWave
smoothSolver:  Solving for nuTilda, Initial residual = 1, Final residual = 0.0290602, No Iterations 2
ExecutionTime = 21.6175 s  ClockTime = 22 s

forceCoeffs canard_1 write:
    Cm    = -3.2437
    Cd    = 3.02722
    Cl    = 4.72215
    Cl(f) = -0.882626
    Cl(r) = 5.60477

forceCoeffs canard_2 write:
    Cm    = -1.94061
    Cd    = 3.02722
    Cl    = 4.72215
    Cl(f) = 0.42046
    Cl(r) = 4.30169

forceCoeffs canard_3 write:
    Cm    = -0.637527
    Cd    = 3.02722
    Cl    = 4.72215
    Cl(f) = 1.72355
    Cl(r) = 2.9986

forceCoeffs canard_4 write:
    Cm    = 0.665559
    Cd    = 3.02722
    Cl    = 4.72215
    Cl(f) = 3.02663
    Cl(r) = 1.69551

forceCoeffs canard_5 write:
    Cm    = 1.96864
    Cd    = 3.02722
    Cl    = 4.72215
    Cl(f) = 4.32972
    Cl(r) = 0.392429

forceCoeffs canard_6 write:
    Cm    = 3.27173
    Cd    = 3.02722
    Cl    = 4.72215
    Cl(f) = 5.6328
    Cl(r) = -0.910658

forceCoeffs canard_7 write:
    Cm    = 4.57482
    Cd    = 3.02722
    Cl    = 4.72215
    Cl(f) = 6.93589
    Cl(r) = -2.21374

forceCoeffs canard_8 write:
    Cm    = 5.8779
    Cd    = 3.02722
    Cl    = 4.72215
    Cl(f) = 8.23898
    Cl(r) = -3.51683

forceCoeffs canard_9 write:
    Cm    = 7.18099
    Cd    = 3.02722
    Cl    = 4.72215
    Cl(f) = 9.54206
    Cl(r) = -4.81992

forceCoeffs canard_10 write:
    Cm    = 8.48408
    Cd    = 3.02722
    Cl    = 4.72215
    Cl(f) = 10.8451
    Cl(r) = -6.123

forceCoeffs canard_11 write:
    Cm    = 9.78716
    Cd    = 3.02722
    Cl    = 4.72215
    Cl(f) = 12.1482
    Cl(r) = -7.42609

Time = 2s

smoothSolver:  Solving for Ux, Initial residual = 0.127512, Final residual = 0.00867101, No Iterations 4
smoothSolver:  Solving for Uy, Initial residual = 0.127715, Final residual = 0.00934506, No Iterations 4
smoothSolver:  Solving for Uz, Initial residual = 0.618609, Final residual = 0.0426384, No Iterations 4
GAMG:  Solving for p, Initial residual = 0.105794, Final residual = 0.00535358, No Iterations 3
time step continuity errors : sum local = 0.000638828, global = 9.44303e-06, cumulative = -4.61502e-06
smoothSolver:  Solving for nuTilda, Initial residual = 0.062342, Final residual = 0.00400862, No Iterations 2
ExecutionTime = 47.8238 s  ClockTime = 49 s

forceCoeffs canard_1 write:
    Cm    = -2.22
    Cd    = 1.9872
    Cl    = 3.55116
    Cl(f) = -0.44442
    Cl(r) = 3.99558

forceCoeffs canard_2 write:
    Cm    = -1.24666
    Cd    = 1.9872
    Cl    = 3.55116
    Cl(f) = 0.528914
    Cl(r) = 3.02224

forceCoeffs canard_3 write:
    Cm    = -0.273329
    Cd    = 1.9872
    Cl    = 3.55116
    Cl(f) = 1.50225
    Cl(r) = 2.04891

forceCoeffs canard_4 write:
    Cm    = 0.700005
    Cd    = 1.9872
    Cl    = 3.55116
    Cl(f) = 2.47558
    Cl(r) = 1.07557

forceCoeffs canard_5 write:
    Cm    = 1.67334
    Cd    = 1.9872
    Cl    = 3.55116
    Cl(f) = 3.44892
    Cl(r) = 0.102238

forceCoeffs canard_6 write:
    Cm    = 2.64667
    Cd    = 1.9872
    Cl    = 3.55116
    Cl(f) = 4.42225
    Cl(r) = -0.871096

forceCoeffs canard_7 write:
    Cm    = 3.62001
    Cd    = 1.9872
    Cl    = 3.55116
    Cl(f) = 5.39559
    Cl(r) = -1.84443

forceCoeffs canard_8 write:
    Cm    = 4.59334
    Cd    = 1.9872
    Cl    = 3.55116
    Cl(f) = 6.36892
    Cl(r) = -2.81776

forceCoeffs canard_9 write:
    Cm    = 5.56668
    Cd    = 1.9872
    Cl    = 3.55116
    Cl(f) = 7.34225
    Cl(r) = -3.7911

forceCoeffs canard_10 write:
    Cm    = 6.54001
    Cd    = 1.9872
    Cl    = 3.55116
    Cl(f) = 8.31559
    Cl(r) = -4.76443

forceCoeffs canard_11 write:
    Cm    = 7.51334
    Cd    = 1.9872
    Cl    = 3.55116
    Cl(f) = 9.28892
    Cl(r) = -5.73777

Time = 3s

smoothSolver:  Solving for Ux, Initial residual = 0.0230212, Final residual = 0.00156904, No Iterations 4
smoothSolver:  Solving for Uy, Initial residual = 0.0200817, Final residual = 0.00147118, No Iterations 4
smoothSolver:  Solving for Uz, Initial residual = 0.267269, Final residual = 0.0182396, No Iterations 4
GAMG:  Solving for p, Initial residual = 0.13341, Final residual = 0.00881744, No Iterations 3
time step continuity errors : sum local = 0.00140042, global = 5.23289e-05, cumulative = 4.77138e-05
smoothSolver:  Solving for nuTilda, Initial residual = 0.0254372, Final residual = 0.00215821, No Iterations 2
ExecutionTime = 70.3907 s  ClockTime = 72 s

forceCoeffs canard_1 write:
    Cm    = 0.0569627
    Cd    = -0.129838
    Cl    = 0.621531
    Cl(f) = 0.367728
    Cl(r) = 0.253803

forceCoeffs canard_2 write:
    Cm    = 0.216399
    Cd    = -0.129838
    Cl    = 0.621531
    Cl(f) = 0.527165
    Cl(r) = 0.0943669

forceCoeffs canard_3 write:
    Cm    = 0.375835
    Cd    = -0.129838
    Cl    = 0.621531
    Cl(f) = 0.686601
    Cl(r) = -0.0650693

forceCoeffs canard_4 write:
    Cm    = 0.535271
    Cd    = -0.129838
    Cl    = 0.621531
    Cl(f) = 0.846037
    Cl(r) = -0.224505

forceCoeffs canard_5 write:
    Cm    = 0.694707
    Cd    = -0.129838
    Cl    = 0.621531
    Cl(f) = 1.00547
    Cl(r) = -0.383942

forceCoeffs canard_6 write:
    Cm    = 0.854143
    Cd    = -0.129838
    Cl    = 0.621531
    Cl(f) = 1.16491
    Cl(r) = -0.543378

forceCoeffs canard_7 write:
    Cm    = 1.01358
    Cd    = -0.129838
    Cl    = 0.621531
    Cl(f) = 1.32435
    Cl(r) = -0.702814

forceCoeffs canard_8 write:
    Cm    = 1.17302
    Cd    = -0.129838
    Cl    = 0.621531
    Cl(f) = 1.48378
    Cl(r) = -0.86225

forceCoeffs canard_9 write:
    Cm    = 1.33245
    Cd    = -0.129838
    Cl    = 0.621531
    Cl(f) = 1.64322
    Cl(r) = -1.02169

forceCoeffs canard_10 write:
    Cm    = 1.49189
    Cd    = -0.129838
    Cl    = 0.621531
    Cl(f) = 1.80265
    Cl(r) = -1.18112

forceCoeffs canard_11 write:
    Cm    = 1.65132
    Cd    = -0.129838
    Cl    = 0.621531
    Cl(f) = 1.96209
    Cl(r) = -1.34056

Time = 4s

smoothSolver:  Solving for Ux, Initial residual = 0.0081557, Final residual = 0.000476775, No Iterations 4
smoothSolver:  Solving for Uy, Initial residual = 0.00581562, Final residual = 0.00035239, No Iterations 4
smoothSolver:  Solving for Uz, Initial residual = 0.118422, Final residual = 0.00692037, No Iterations 4
GAMG:  Solving for p, Initial residual = 0.0823091, Final residual = 0.00568564, No Iterations 3
time step continuity errors : sum local = 0.00101506, global = 4.11433e-05, cumulative = 8.88571e-05
smoothSolver:  Solving for nuTilda, Initial residual = 0.017477, Final residual = 0.00144277, No Iterations 2
ExecutionTime = 91.2944 s  ClockTime = 93 s

forceCoeffs canard_1 write:
    Cm    = 1.23126
    Cd    = -1.19423
    Cl    = -1.0544
    Cl(f) = 0.704063
    Cl(r) = -1.75846

forceCoeffs canard_2 write:
    Cm    = 0.928451
    Cd    = -1.19423
    Cl    = -1.0544
    Cl(f) = 0.401251
    Cl(r) = -1.45565

forceCoeffs canard_3 write:
    Cm    = 0.625639
    Cd    = -1.19423
    Cl    = -1.0544
    Cl(f) = 0.0984393
    Cl(r) = -1.15284

forceCoeffs canard_4 write:
    Cm    = 0.322827
    Cd    = -1.19423
    Cl    = -1.0544
    Cl(f) = -0.204373
    Cl(r) = -0.850027

forceCoeffs canard_5 write:
    Cm    = 0.0200151
    Cd    = -1.19423
    Cl    = -1.0544
    Cl(f) = -0.507185
    Cl(r) = -0.547215

forceCoeffs canard_6 write:
    Cm    = -0.282797
    Cd    = -1.19423
    Cl    = -1.0544
    Cl(f) = -0.809997
    Cl(r) = -0.244403

forceCoeffs canard_7 write:
    Cm    = -0.585609
    Cd    = -1.19423
    Cl    = -1.0544
    Cl(f) = -1.11281
    Cl(r) = 0.0584091

forceCoeffs canard_8 write:
    Cm    = -0.888421
    Cd    = -1.19423
    Cl    = -1.0544
    Cl(f) = -1.41562
    Cl(r) = 0.361221

forceCoeffs canard_9 write:
    Cm    = -1.19123
    Cd    = -1.19423
    Cl    = -1.0544
    Cl(f) = -1.71843
    Cl(r) = 0.664033

forceCoeffs canard_10 write:
    Cm    = -1.49405
    Cd    = -1.19423
    Cl    = -1.0544
    Cl(f) = -2.02125
    Cl(r) = 0.966845

forceCoeffs canard_11 write:
    Cm    = -1.79686
    Cd    = -1.19423
    Cl    = -1.0544
    Cl(f) = -2.32406
    Cl(r) = 1.26966

Time = 5s

smoothSolver:  Solving for Ux, Initial residual = 0.0128651, Final residual = 0.000847155, No Iterations 4
smoothSolver:  Solving for Uy, Initial residual = 0.0121294, Final residual = 0.000853218, No Iterations 4
smoothSolver:  Solving for Uz, Initial residual = 0.149795, Final residual = 0.00987076, No Iterations 4
GAMG:  Solving for p, Initial residual = 0.0777448, Final residual = 0.00479252, No Iterations 3
time step continuity errors : sum local = 0.000821715, global = 3.04313e-05, cumulative = 0.000119288
smoothSolver:  Solving for nuTilda, Initial residual = 0.0134165, Final residual = 0.0010218, No Iterations 2
ExecutionTime = 109.241 s  ClockTime = 111 s

forceCoeffs canard_1 write:
    Cm    = 0.773414
    Cd    = -0.781151
    Cl    = -0.657381
    Cl(f) = 0.444724
    Cl(r) = -1.1021

forceCoeffs canard_2 write:
    Cm    = 0.583785
    Cd    = -0.781151
    Cl    = -0.657381
    Cl(f) = 0.255095
    Cl(r) = -0.912475

forceCoeffs canard_3 write:
    Cm    = 0.394156
    Cd    = -0.781151
    Cl    = -0.657381
    Cl(f) = 0.0654657
    Cl(r) = -0.722846

forceCoeffs canard_4 write:
    Cm    = 0.204527
    Cd    = -0.781151
    Cl    = -0.657381
    Cl(f) = -0.124163
    Cl(r) = -0.533217

forceCoeffs canard_5 write:
    Cm    = 0.0148981
    Cd    = -0.781151
    Cl    = -0.657381
    Cl(f) = -0.313792
    Cl(r) = -0.343588

forceCoeffs canard_6 write:
    Cm    = -0.174731
    Cd    = -0.781151
    Cl    = -0.657381
    Cl(f) = -0.503421
    Cl(r) = -0.153959

forceCoeffs canard_7 write:
    Cm    = -0.36436
    Cd    = -0.781151
    Cl    = -0.657381
    Cl(f) = -0.69305
    Cl(r) = 0.0356695

forceCoeffs canard_8 write:
    Cm    = -0.553989
    Cd    = -0.781151
    Cl    = -0.657381
    Cl(f) = -0.882679
    Cl(r) = 0.225299

forceCoeffs canard_9 write:
    Cm    = -0.743618
    Cd    = -0.781151
    Cl    = -0.657381
    Cl(f) = -1.07231
    Cl(r) = 0.414927

forceCoeffs canard_10 write:
    Cm    = -0.933247
    Cd    = -0.781151
    Cl    = -0.657381
    Cl(f) = -1.26194
    Cl(r) = 0.604556

forceCoeffs canard_11 write:
    Cm    = -1.12288
    Cd    = -0.781151
    Cl    = -0.657381
    Cl(f) = -1.45157
    Cl(r) = 0.794185

Time = 6s

smoothSolver:  Solving for Ux, Initial residual = 0.0206526, Final residual = 0.0013459, No Iterations 4
smoothSolver:  Solving for Uy, Initial residual = 0.0190171, Final residual = 0.00133881, No Iterations 4
smoothSolver:  Solving for Uz, Initial residual = 0.176512, Final residual = 0.0121545, No Iterations 4
GAMG:  Solving for p, Initial residual = 0.136155, Final residual = 0.00738994, No Iterations 3
time step continuity errors : sum local = 0.000899986, global = -2.17697e-05, cumulative = 9.75187e-05
smoothSolver:  Solving for nuTilda, Initial residual = 0.0105938, Final residual = 0.00072291, No Iterations 2
ExecutionTime = 127.554 s  ClockTime = 141 s

forceCoeffs canard_1 write:
    Cm    = -0.283416
    Cd    = 0.168303
    Cl    = 0.527281
    Cl(f) = -0.0197751
    Cl(r) = 0.547056

forceCoeffs canard_2 write:
    Cm    = -0.141791
    Cd    = 0.168303
    Cl    = 0.527281
    Cl(f) = 0.121849
    Cl(r) = 0.405432

forceCoeffs canard_3 write:
    Cm    = -0.000166794
    Cd    = 0.168303
    Cl    = 0.527281
    Cl(f) = 0.263474
    Cl(r) = 0.263807

forceCoeffs canard_4 write:
    Cm    = 0.141458
    Cd    = 0.168303
    Cl    = 0.527281
    Cl(f) = 0.405098
    Cl(r) = 0.122183

forceCoeffs canard_5 write:
    Cm    = 0.283082
    Cd    = 0.168303
    Cl    = 0.527281
    Cl(f) = 0.546723
    Cl(r) = -0.0194415

forceCoeffs canard_6 write:
    Cm    = 0.424706
    Cd    = 0.168303
    Cl    = 0.527281
    Cl(f) = 0.688347
    Cl(r) = -0.161066

forceCoeffs canard_7 write:
    Cm    = 0.566331
    Cd    = 0.168303
    Cl    = 0.527281
    Cl(f) = 0.829971
    Cl(r) = -0.30269

forceCoeffs canard_8 write:
    Cm    = 0.707955
    Cd    = 0.168303
    Cl    = 0.527281
    Cl(f) = 0.971596
    Cl(r) = -0.444315

forceCoeffs canard_9 write:
    Cm    = 0.84958
    Cd    = 0.168303
    Cl    = 0.527281
    Cl(f) = 1.11322
    Cl(r) = -0.585939

forceCoeffs canard_10 write:
    Cm    = 0.991204
    Cd    = 0.168303
    Cl    = 0.527281
    Cl(f) = 1.25484
    Cl(r) = -0.727564

forceCoeffs canard_11 write:
    Cm    = 1.13283
    Cd    = 0.168303
    Cl    = 0.527281
    Cl(f) = 1.39647
    Cl(r) = -0.869188

Time = 7s

smoothSolver:  Solving for Ux, Initial residual = 0.0193164, Final residual = 0.00107303, No Iterations 4
smoothSolver:  Solving for Uy, Initial residual = 0.021923, Final residual = 0.00134967, No Iterations 4
smoothSolver:  Solving for Uz, Initial residual = 0.158942, Final residual = 0.00983023, No Iterations 4
GAMG:  Solving for p, Initial residual = 0.32787, Final residual = 0.0178724, No Iterations 3
time step continuity errors : sum local = 0.000632622, global = -3.2186e-05, cumulative = 6.53326e-05
smoothSolver:  Solving for nuTilda, Initial residual = 0.0085112, Final residual = 0.000502506, No Iterations 2
ExecutionTime = 143.673 s  ClockTime = 145 s

forceCoeffs canard_1 write:
    Cm    = -0.874534
    Cd    = 0.704805
    Cl    = 1.30391
    Cl(f) = -0.22258
    Cl(r) = 1.52649

forceCoeffs canard_2 write:
    Cm    = -0.517715
    Cd    = 0.704805
    Cl    = 1.30391
    Cl(f) = 0.13424
    Cl(r) = 1.16967

forceCoeffs canard_3 write:
    Cm    = -0.160895
    Cd    = 0.704805
    Cl    = 1.30391
    Cl(f) = 0.49106
    Cl(r) = 0.81285

forceCoeffs canard_4 write:
    Cm    = 0.195925
    Cd    = 0.704805
    Cl    = 1.30391
    Cl(f) = 0.847879
    Cl(r) = 0.45603

forceCoeffs canard_5 write:
    Cm    = 0.552744
    Cd    = 0.704805
    Cl    = 1.30391
    Cl(f) = 1.2047
    Cl(r) = 0.0992103

forceCoeffs canard_6 write:
    Cm    = 0.909564
    Cd    = 0.704805
    Cl    = 1.30391
    Cl(f) = 1.56152
    Cl(r) = -0.257609

forceCoeffs canard_7 write:
    Cm    = 1.26638
    Cd    = 0.704805
    Cl    = 1.30391
    Cl(f) = 1.91834
    Cl(r) = -0.614429

forceCoeffs canard_8 write:
    Cm    = 1.6232
    Cd    = 0.704805
    Cl    = 1.30391
    Cl(f) = 2.27516
    Cl(r) = -0.971249

forceCoeffs canard_9 write:
    Cm    = 1.98002
    Cd    = 0.704805
    Cl    = 1.30391
    Cl(f) = 2.63198
    Cl(r) = -1.32807

forceCoeffs canard_10 write:
    Cm    = 2.33684
    Cd    = 0.704805
    Cl    = 1.30391
    Cl(f) = 2.9888
    Cl(r) = -1.68489

forceCoeffs canard_11 write:
    Cm    = 2.69366
    Cd    = 0.704805
    Cl    = 1.30391
    Cl(f) = 3.34562
    Cl(r) = -2.04171

Time = 8s

smoothSolver:  Solving for Ux, Initial residual = 0.0146497, Final residual = 0.000884142, No Iterations 4
smoothSolver:  Solving for Uy, Initial residual = 0.0172144, Final residual = 0.00115189, No Iterations 4
smoothSolver:  Solving for Uz, Initial residual = 0.139684, Final residual = 0.00831726, No Iterations 4
GAMG:  Solving for p, Initial residual = 0.288889, Final residual = 0.0189591, No Iterations 3
time step continuity errors : sum local = 0.000727427, global = -3.94743e-05, cumulative = 2.58583e-05
smoothSolver:  Solving for nuTilda, Initial residual = 0.00680042, Final residual = 0.000346836, No Iterations 2
ExecutionTime = 159.837 s  ClockTime = 161 s

forceCoeffs canard_1 write:
    Cm    = -0.699265
    Cd    = 0.562074
    Cl    = 1.25122
    Cl(f) = -0.0736555
    Cl(r) = 1.32487

forceCoeffs canard_2 write:
    Cm    = -0.359476
    Cd    = 0.562074
    Cl    = 1.25122
    Cl(f) = 0.266133
    Cl(r) = 0.985085

forceCoeffs canard_3 write:
    Cm    = -0.0196871
    Cd    = 0.562074
    Cl    = 1.25122
    Cl(f) = 0.605922
    Cl(r) = 0.645296

forceCoeffs canard_4 write:
    Cm    = 0.320102
    Cd    = 0.562074
    Cl    = 1.25122
    Cl(f) = 0.945711
    Cl(r) = 0.305508

forceCoeffs canard_5 write:
    Cm    = 0.659891
    Cd    = 0.562074
    Cl    = 1.25122
    Cl(f) = 1.2855
    Cl(r) = -0.0342813

forceCoeffs canard_6 write:
    Cm    = 0.999679
    Cd    = 0.562074
    Cl    = 1.25122
    Cl(f) = 1.62529
    Cl(r) = -0.37407

forceCoeffs canard_7 write:
    Cm    = 1.33947
    Cd    = 0.562074
    Cl    = 1.25122
    Cl(f) = 1.96508
    Cl(r) = -0.713859

forceCoeffs canard_8 write:
    Cm    = 1.67926
    Cd    = 0.562074
    Cl    = 1.25122
    Cl(f) = 2.30487
    Cl(r) = -1.05365

forceCoeffs canard_9 write:
    Cm    = 2.01905
    Cd    = 0.562074
    Cl    = 1.25122
    Cl(f) = 2.64466
    Cl(r) = -1.39344

forceCoeffs canard_10 write:
    Cm    = 2.35883
    Cd    = 0.562074
    Cl    = 1.25122
    Cl(f) = 2.98444
    Cl(r) = -1.73323

forceCoeffs canard_11 write:
    Cm    = 2.69862
    Cd    = 0.562074
    Cl    = 1.25122
    Cl(f) = 3.32423
    Cl(r) = -2.07301

Time = 9s

smoothSolver:  Solving for Ux, Initial residual = 0.0099123, Final residual = 0.000626807, No Iterations 4
smoothSolver:  Solving for Uy, Initial residual = 0.00855804, Final residual = 0.000568742, No Iterations 4
smoothSolver:  Solving for Uz, Initial residual = 0.122156, Final residual = 0.00752791, No Iterations 4
GAMG:  Solving for p, Initial residual = 0.381371, Final residual = 0.0217921, No Iterations 3
time step continuity errors : sum local = 0.000713132, global = -4.60992e-06, cumulative = 2.12484e-05
smoothSolver:  Solving for nuTilda, Initial residual = 0.00533428, Final residual = 0.000247919, No Iterations 2
ExecutionTime = 176.138 s  ClockTime = 177 s

forceCoeffs canard_1 write:
    Cm    = -0.23191
    Cd    = 0.150896
    Cl    = 0.876711
    Cl(f) = 0.206445
    Cl(r) = 0.670265

forceCoeffs canard_2 write:
    Cm    = 0.000621457
    Cd    = 0.150896
    Cl    = 0.876711
    Cl(f) = 0.438977
    Cl(r) = 0.437734

forceCoeffs canard_3 write:
    Cm    = 0.233153
    Cd    = 0.150896
    Cl    = 0.876711
    Cl(f) = 0.671508
    Cl(r) = 0.205202

forceCoeffs canard_4 write:
    Cm    = 0.465684
    Cd    = 0.150896
    Cl    = 0.876711
    Cl(f) = 0.904039
    Cl(r) = -0.0273289

forceCoeffs canard_5 write:
    Cm    = 0.698216
    Cd    = 0.150896
    Cl    = 0.876711
    Cl(f) = 1.13657
    Cl(r) = -0.25986

forceCoeffs canard_6 write:
    Cm    = 0.930747
    Cd    = 0.150896
    Cl    = 0.876711
    Cl(f) = 1.3691
    Cl(r) = -0.492392

forceCoeffs canard_7 write:
    Cm    = 1.16328
    Cd    = 0.150896
    Cl    = 0.876711
    Cl(f) = 1.60163
    Cl(r) = -0.724923

forceCoeffs canard_8 write:
    Cm    = 1.39581
    Cd    = 0.150896
    Cl    = 0.876711
    Cl(f) = 1.83416
    Cl(r) = -0.957454

forceCoeffs canard_9 write:
    Cm    = 1.62834
    Cd    = 0.150896
    Cl    = 0.876711
    Cl(f) = 2.0667
    Cl(r) = -1.18999

forceCoeffs canard_10 write:
    Cm    = 1.86087
    Cd    = 0.150896
    Cl    = 0.876711
    Cl(f) = 2.29923
    Cl(r) = -1.42252

forceCoeffs canard_11 write:
    Cm    = 2.0934
    Cd    = 0.150896
    Cl    = 0.876711
    Cl(f) = 2.53176
    Cl(r) = -1.65505

Time = 10s

smoothSolver:  Solving for Ux, Initial residual = 0.00814769, Final residual = 0.000478357, No Iterations 4
smoothSolver:  Solving for Uy, Initial residual = 0.00671411, Final residual = 0.00040425, No Iterations 4
smoothSolver:  Solving for Uz, Initial residual = 0.113239, Final residual = 0.00673754, No Iterations 4
GAMG:  Solving for p, Initial residual = 0.0834024, Final residual = 0.00420426, No Iterations 3
time step continuity errors : sum local = 0.000482647, global = 2.15903e-05, cumulative = 4.28387e-05
smoothSolver:  Solving for nuTilda, Initial residual = 0.00408204, Final residual = 0.000200871, No Iterations 2
ExecutionTime = 208.014 s  ClockTime = 222 s

forceCoeffs canard_1 write:
    Cm    = 0.0513288
    Cd    = -0.111033
    Cl    = 0.618863
    Cl(f) = 0.36076
    Cl(r) = 0.258103

forceCoeffs canard_2 write:
    Cm    = 0.210498
    Cd    = -0.111033
    Cl    = 0.618863
    Cl(f) = 0.519929
    Cl(r) = 0.098934

forceCoeffs canard_3 write:
    Cm    = 0.369667
    Cd    = -0.111033
    Cl    = 0.618863
    Cl(f) = 0.679098
    Cl(r) = -0.0602349

forceCoeffs canard_4 write:
    Cm    = 0.528835
    Cd    = -0.111033
    Cl    = 0.618863
    Cl(f) = 0.838267
    Cl(r) = -0.219404

forceCoeffs canard_5 write:
    Cm    = 0.688004
    Cd    = -0.111033
    Cl    = 0.618863
    Cl(f) = 0.997436
    Cl(r) = -0.378573

forceCoeffs canard_6 write:
    Cm    = 0.847173
    Cd    = -0.111033
    Cl    = 0.618863
    Cl(f) = 1.1566
    Cl(r) = -0.537741

forceCoeffs canard_7 write:
    Cm    = 1.00634
    Cd    = -0.111033
    Cl    = 0.618863
    Cl(f) = 1.31577
    Cl(r) = -0.69691

forceCoeffs canard_8 write:
    Cm    = 1.16551
    Cd    = -0.111033
    Cl    = 0.618863
    Cl(f) = 1.47494
    Cl(r) = -0.856079

forceCoeffs canard_9 write:
    Cm    = 1.32468
    Cd    = -0.111033
    Cl    = 0.618863
    Cl(f) = 1.63411
    Cl(r) = -1.01525

forceCoeffs canard_10 write:
    Cm    = 1.48385
    Cd    = -0.111033
    Cl    = 0.618863
    Cl(f) = 1.79328
    Cl(r) = -1.17442

forceCoeffs canard_11 write:
    Cm    = 1.64302
    Cd    = -0.111033
    Cl    = 0.618863
    Cl(f) = 1.95245
    Cl(r) = -1.33359

Time = 11s

smoothSolver:  Solving for Ux, Initial residual = 0.0084831, Final residual = 0.000477808, No Iterations 4
smoothSolver:  Solving for Uy, Initial residual = 0.00888101, Final residual = 0.000553341, No Iterations 4
smoothSolver:  Solving for Uz, Initial residual = 0.100948, Final residual = 0.00582654, No Iterations 4
GAMG:  Solving for p, Initial residual = 0.051769, Final residual = 0.00300968, No Iterations 3
time step continuity errors : sum local = 0.000521271, global = 3.65258e-05, cumulative = 7.93645e-05
smoothSolver:  Solving for nuTilda, Initial residual = 0.00305441, Final residual = 0.000185698, No Iterations 2
ExecutionTime = 226.864 s  ClockTime = 228 s

forceCoeffs canard_1 write:
    Cm    = -0.000758118
    Cd    = -0.0820279
    Cl    = 0.625817
    Cl(f) = 0.31215
    Cl(r) = 0.313667

forceCoeffs canard_2 write:
    Cm    = 0.160891
    Cd    = -0.0820279
    Cl    = 0.625817
    Cl(f) = 0.473799
    Cl(r) = 0.152018

forceCoeffs canard_3 write:
    Cm    = 0.32254
    Cd    = -0.0820279
    Cl    = 0.625817
    Cl(f) = 0.635448
    Cl(r) = -0.0096312

forceCoeffs canard_4 write:
    Cm    = 0.484189
    Cd    = -0.0820279
    Cl    = 0.625817
    Cl(f) = 0.797097
    Cl(r) = -0.17128

forceCoeffs canard_5 write:
    Cm    = 0.645837
    Cd    = -0.0820279
    Cl    = 0.625817
    Cl(f) = 0.958746
    Cl(r) = -0.332929

forceCoeffs canard_6 write:
    Cm    = 0.807486
    Cd    = -0.0820279
    Cl    = 0.625817
    Cl(f) = 1.12039
    Cl(r) = -0.494578

forceCoeffs canard_7 write:
    Cm    = 0.969135
    Cd    = -0.0820279
    Cl    = 0.625817
    Cl(f) = 1.28204
    Cl(r) = -0.656227

forceCoeffs canard_8 write:
    Cm    = 1.13078
    Cd    = -0.0820279
    Cl    = 0.625817
    Cl(f) = 1.44369
    Cl(r) = -0.817876

forceCoeffs canard_9 write:
    Cm    = 1.29243
    Cd    = -0.0820279
    Cl    = 0.625817
    Cl(f) = 1.60534
    Cl(r) = -0.979525

forceCoeffs canard_10 write:
    Cm    = 1.45408
    Cd    = -0.0820279
    Cl    = 0.625817
    Cl(f) = 1.76699
    Cl(r) = -1.14117

forceCoeffs canard_11 write:
    Cm    = 1.61573
    Cd    = -0.0820279
    Cl    = 0.625817
    Cl(f) = 1.92864
    Cl(r) = -1.30282

Time = 12s

smoothSolver:  Solving for Ux, Initial residual = 0.00839308, Final residual = 0.000469689, No Iterations 4
smoothSolver:  Solving for Uy, Initial residual = 0.00897197, Final residual = 0.000553868, No Iterations 4
smoothSolver:  Solving for Uz, Initial residual = 0.0768292, Final residual = 0.00437128, No Iterations 4
GAMG:  Solving for p, Initial residual = 0.0596632, Final residual = 0.00342741, No Iterations 3
time step continuity errors : sum local = 0.000550714, global = 2.82703e-05, cumulative = 0.000107635
smoothSolver:  Solving for nuTilda, Initial residual = 0.00225822, Final residual = 0.00017403, No Iterations 2
ExecutionTime = 239.789 s  ClockTime = 243 s

forceCoeffs canard_1 write:
    Cm    = -0.1839
    Cd    = 0.0740845
    Cl    = 0.728992
    Cl(f) = 0.180596
    Cl(r) = 0.548396

forceCoeffs canard_2 write:
    Cm    = 0.0082767
    Cd    = 0.0740845
    Cl    = 0.728992
    Cl(f) = 0.372772
    Cl(r) = 0.356219

forceCoeffs canard_3 write:
    Cm    = 0.200454
    Cd    = 0.0740845
    Cl    = 0.728992
    Cl(f) = 0.564949
    Cl(r) = 0.164042

forceCoeffs canard_4 write:
    Cm    = 0.39263
    Cd    = 0.0740845
    Cl    = 0.728992
    Cl(f) = 0.757126
    Cl(r) = -0.0281347

forceCoeffs canard_5 write:
    Cm    = 0.584807
    Cd    = 0.0740845
    Cl    = 0.728992
    Cl(f) = 0.949303
    Cl(r) = -0.220312

forceCoeffs canard_6 write:
    Cm    = 0.776984
    Cd    = 0.0740845
    Cl    = 0.728992
    Cl(f) = 1.14148
    Cl(r) = -0.412488

forceCoeffs canard_7 write:
    Cm    = 0.969161
    Cd    = 0.0740845
    Cl    = 0.728992
    Cl(f) = 1.33366
    Cl(r) = -0.604665

forceCoeffs canard_8 write:
    Cm    = 1.16134
    Cd    = 0.0740845
    Cl    = 0.728992
    Cl(f) = 1.52583
    Cl(r) = -0.796842

forceCoeffs canard_9 write:
    Cm    = 1.35351
    Cd    = 0.0740845
    Cl    = 0.728992
    Cl(f) = 1.71801
    Cl(r) = -0.989019

forceCoeffs canard_10 write:
    Cm    = 1.54569
    Cd    = 0.0740845
    Cl    = 0.728992
    Cl(f) = 1.91019
    Cl(r) = -1.1812

forceCoeffs canard_11 write:
    Cm    = 1.73787
    Cd    = 0.0740845
    Cl    = 0.728992
    Cl(f) = 2.10236
    Cl(r) = -1.37337

Time = 13s

smoothSolver:  Solving for Ux, Initial residual = 0.00743767, Final residual = 0.000406003, No Iterations 4
smoothSolver:  Solving for Uy, Initial residual = 0.00865532, Final residual = 0.000520547, No Iterations 4
smoothSolver:  Solving for Uz, Initial residual = 0.0638557, Final residual = 0.00366611, No Iterations 4
GAMG:  Solving for p, Initial residual = 0.0767448, Final residual = 0.00731201, No Iterations 2
time step continuity errors : sum local = 0.000748922, global = 2.6001e-05, cumulative = 0.000133636
smoothSolver:  Solving for nuTilda, Initial residual = 0.00166426, Final residual = 0.000162237, No Iterations 2
ExecutionTime = 251.763 s  ClockTime = 267 s

forceCoeffs canard_1 write:
    Cm    = -0.279765
    Cd    = 0.169131
    Cl    = 0.778186
    Cl(f) = 0.109328
    Cl(r) = 0.668857

forceCoeffs canard_2 write:
    Cm    = -0.0725606
    Cd    = 0.169131
    Cl    = 0.778186
    Cl(f) = 0.316532
    Cl(r) = 0.461653

forceCoeffs canard_3 write:
    Cm    = 0.134643
    Cd    = 0.169131
    Cl    = 0.778186
    Cl(f) = 0.523736
    Cl(r) = 0.254449

forceCoeffs canard_4 write:
    Cm    = 0.341847
    Cd    = 0.169131
    Cl    = 0.778186
    Cl(f) = 0.73094
    Cl(r) = 0.0472455

forceCoeffs canard_5 write:
    Cm    = 0.549051
    Cd    = 0.169131
    Cl    = 0.778186
    Cl(f) = 0.938144
    Cl(r) = -0.159958

forceCoeffs canard_6 write:
    Cm    = 0.756255
    Cd    = 0.169131
    Cl    = 0.778186
    Cl(f) = 1.14535
    Cl(r) = -0.367162

forceCoeffs canard_7 write:
    Cm    = 0.963459
    Cd    = 0.169131
    Cl    = 0.778186
    Cl(f) = 1.35255
    Cl(r) = -0.574366

forceCoeffs canard_8 write:
    Cm    = 1.17066
    Cd    = 0.169131
    Cl    = 0.778186
    Cl(f) = 1.55976
    Cl(r) = -0.78157

forceCoeffs canard_9 write:
    Cm    = 1.37787
    Cd    = 0.169131
    Cl    = 0.778186
    Cl(f) = 1.76696
    Cl(r) = -0.988774

forceCoeffs canard_10 write:
    Cm    = 1.58507
    Cd    = 0.169131
    Cl    = 0.778186
    Cl(f) = 1.97416
    Cl(r) = -1.19598

forceCoeffs canard_11 write:
    Cm    = 1.79227
    Cd    = 0.169131
    Cl    = 0.778186
    Cl(f) = 2.18137
    Cl(r) = -1.40318

Time = 14s

smoothSolver:  Solving for Ux, Initial residual = 0.00637779, Final residual = 0.000358138, No Iterations 4
smoothSolver:  Solving for Uy, Initial residual = 0.00826971, Final residual = 0.000499608, No Iterations 4
smoothSolver:  Solving for Uz, Initial residual = 0.061697, Final residual = 0.00358251, No Iterations 4
GAMG:  Solving for p, Initial residual = 0.125489, Final residual = 0.00600519, No Iterations 3
time step continuity errors : sum local = 0.000349892, global = -2.21778e-05, cumulative = 0.000111458
smoothSolver:  Solving for nuTilda, Initial residual = 0.0012386, Final residual = 3.40198e-05, No Iterations 4
ExecutionTime = 264.377 s  ClockTime = 267 s

forceCoeffs canard_1 write:
    Cm    = -0.268789
    Cd    = 0.183454
    Cl    = 0.787948
    Cl(f) = 0.125186
    Cl(r) = 0.662763

forceCoeffs canard_2 write:
    Cm    = -0.0587062
    Cd    = 0.183454
    Cl    = 0.787948
    Cl(f) = 0.335268
    Cl(r) = 0.45268

forceCoeffs canard_3 write:
    Cm    = 0.151376
    Cd    = 0.183454
    Cl    = 0.787948
    Cl(f) = 0.54535
    Cl(r) = 0.242598

forceCoeffs canard_4 write:
    Cm    = 0.361458
    Cd    = 0.183454
    Cl    = 0.787948
    Cl(f) = 0.755433
    Cl(r) = 0.0325157

forceCoeffs canard_5 write:
    Cm    = 0.571541
    Cd    = 0.183454
    Cl    = 0.787948
    Cl(f) = 0.965515
    Cl(r) = -0.177567

forceCoeffs canard_6 write:
    Cm    = 0.781623
    Cd    = 0.183454
    Cl    = 0.787948
    Cl(f) = 1.1756
    Cl(r) = -0.387649

forceCoeffs canard_7 write:
    Cm    = 0.991705
    Cd    = 0.183454
    Cl    = 0.787948
    Cl(f) = 1.38568
    Cl(r) = -0.597731

forceCoeffs canard_8 write:
    Cm    = 1.20179
    Cd    = 0.183454
    Cl    = 0.787948
    Cl(f) = 1.59576
    Cl(r) = -0.807814

forceCoeffs canard_9 write:
    Cm    = 1.41187
    Cd    = 0.183454
    Cl    = 0.787948
    Cl(f) = 1.80584
    Cl(r) = -1.0179

forceCoeffs canard_10 write:
    Cm    = 1.62195
    Cd    = 0.183454
    Cl    = 0.787948
    Cl(f) = 2.01593
    Cl(r) = -1.22798

forceCoeffs canard_11 write:
    Cm    = 1.83203
    Cd    = 0.183454
    Cl    = 0.787948
    Cl(f) = 2.22601
    Cl(r) = -1.43806

Time = 15s

smoothSolver:  Solving for Ux, Initial residual = 0.00569551, Final residual = 0.000309637, No Iterations 4
smoothSolver:  Solving for Uy, Initial residual = 0.00649662, Final residual = 0.000380391, No Iterations 4
smoothSolver:  Solving for Uz, Initial residual = 0.0557004, Final residual = 0.00311937, No Iterations 4
GAMG:  Solving for p, Initial residual = 0.153097, Final residual = 0.00796392, No Iterations 3
time step continuity errors : sum local = 0.000373994, global = -3.41843e-05, cumulative = 7.72737e-05
smoothSolver:  Solving for nuTilda, Initial residual = 0.000948067, Final residual = 3.24927e-05, No Iterations 4
ExecutionTime = 276.702 s  ClockTime = 280 s

forceCoeffs canard_1 write:
    Cm    = -0.201433
    Cd    = 0.141342
    Cl    = 0.793282
    Cl(f) = 0.195209
    Cl(r) = 0.598074

forceCoeffs canard_2 write:
    Cm    = 0.00908088
    Cd    = 0.141342
    Cl    = 0.793282
    Cl(f) = 0.405722
    Cl(r) = 0.38756

forceCoeffs canard_3 write:
    Cm    = 0.219594
    Cd    = 0.141342
    Cl    = 0.793282
    Cl(f) = 0.616236
    Cl(r) = 0.177047

forceCoeffs canard_4 write:
    Cm    = 0.430108
    Cd    = 0.141342
    Cl    = 0.793282
    Cl(f) = 0.826749
    Cl(r) = -0.0334665

forceCoeffs canard_5 write:
    Cm    = 0.640621
    Cd    = 0.141342
    Cl    = 0.793282
    Cl(f) = 1.03726
    Cl(r) = -0.24398

forceCoeffs canard_6 write:
    Cm    = 0.851135
    Cd    = 0.141342
    Cl    = 0.793282
    Cl(f) = 1.24778
    Cl(r) = -0.454493

forceCoeffs canard_7 write:
    Cm    = 1.06165
    Cd    = 0.141342
    Cl    = 0.793282
    Cl(f) = 1.45829
    Cl(r) = -0.665007

forceCoeffs canard_8 write:
    Cm    = 1.27216
    Cd    = 0.141342
    Cl    = 0.793282
    Cl(f) = 1.6688
    Cl(r) = -0.87552

forceCoeffs canard_9 write:
    Cm    = 1.48267
    Cd    = 0.141342
    Cl    = 0.793282
    Cl(f) = 1.87932
    Cl(r) = -1.08603

forceCoeffs canard_10 write:
    Cm    = 1.69319
    Cd    = 0.141342
    Cl    = 0.793282
    Cl(f) = 2.08983
    Cl(r) = -1.29655

forceCoeffs canard_11 write:
    Cm    = 1.9037
    Cd    = 0.141342
    Cl    = 0.793282
    Cl(f) = 2.30034
    Cl(r) = -1.50706

Time = 16s

smoothSolver:  Solving for Ux, Initial residual = 0.00551527, Final residual = 0.000291911, No Iterations 4
smoothSolver:  Solving for Uy, Initial residual = 0.00574948, Final residual = 0.000335131, No Iterations 4
smoothSolver:  Solving for Uz, Initial residual = 0.0532389, Final residual = 0.00298252, No Iterations 4
GAMG:  Solving for p, Initial residual = 0.0851962, Final residual = 0.00832724, No Iterations 2
time step continuity errors : sum local = 0.000616429, global = -2.99622e-05, cumulative = 4.73115e-05
smoothSolver:  Solving for nuTilda, Initial residual = 0.000771581, Final residual = 3.13829e-05, No Iterations 4
ExecutionTime = 287.899 s  ClockTime = 291 s

forceCoeffs canard_1 write:
    Cm    = -0.158977
    Cd    = 0.109216
    Cl    = 0.817335
    Cl(f) = 0.249691
    Cl(r) = 0.567644

forceCoeffs canard_2 write:
    Cm    = 0.0570869
    Cd    = 0.109216
    Cl    = 0.817335
    Cl(f) = 0.465754
    Cl(r) = 0.351581

forceCoeffs canard_3 write:
    Cm    = 0.273151
    Cd    = 0.109216
    Cl    = 0.817335
    Cl(f) = 0.681818
    Cl(r) = 0.135517

forceCoeffs canard_4 write:
    Cm    = 0.489215
    Cd    = 0.109216
    Cl    = 0.817335
    Cl(f) = 0.897882
    Cl(r) = -0.0805472

forceCoeffs canard_5 write:
    Cm    = 0.705279
    Cd    = 0.109216
    Cl    = 0.817335
    Cl(f) = 1.11395
    Cl(r) = -0.296611

forceCoeffs canard_6 write:
    Cm    = 0.921342
    Cd    = 0.109216
    Cl    = 0.817335
    Cl(f) = 1.33001
    Cl(r) = -0.512675

forceCoeffs canard_7 write:
    Cm    = 1.13741
    Cd    = 0.109216
    Cl    = 0.817335
    Cl(f) = 1.54607
    Cl(r) = -0.728739

forceCoeffs canard_8 write:
    Cm    = 1.35347
    Cd    = 0.109216
    Cl    = 0.817335
    Cl(f) = 1.76214
    Cl(r) = -0.944803

forceCoeffs canard_9 write:
    Cm    = 1.56953
    Cd    = 0.109216
    Cl    = 0.817335
    Cl(f) = 1.9782
    Cl(r) = -1.16087

forceCoeffs canard_10 write:
    Cm    = 1.7856
    Cd    = 0.109216
    Cl    = 0.817335
    Cl(f) = 2.19427
    Cl(r) = -1.37693

forceCoeffs canard_11 write:
    Cm    = 2.00166
    Cd    = 0.109216
    Cl    = 0.817335
    Cl(f) = 2.41033
    Cl(r) = -1.59299

Time = 17s

smoothSolver:  Solving for Ux, Initial residual = 0.00528328, Final residual = 0.000281076, No Iterations 4
smoothSolver:  Solving for Uy, Initial residual = 0.00597042, Final residual = 0.000343739, No Iterations 4
smoothSolver:  Solving for Uz, Initial residual = 0.0513952, Final residual = 0.00284245, No Iterations 4
GAMG:  Solving for p, Initial residual = 0.0561096, Final residual = 0.0026677, No Iterations 3
time step continuity errors : sum local = 0.000283465, global = 6.6178e-07, cumulative = 4.79732e-05
smoothSolver:  Solving for nuTilda, Initial residual = 0.00066094, Final residual = 3.02073e-05, No Iterations 4
ExecutionTime = 298.475 s  ClockTime = 303 s

forceCoeffs canard_1 write:
    Cm    = -0.14917
    Cd    = 0.0958671
    Cl    = 0.852261
    Cl(f) = 0.27696
    Cl(r) = 0.5753

forceCoeffs canard_2 write:
    Cm    = 0.0757147
    Cd    = 0.0958671
    Cl    = 0.852261
    Cl(f) = 0.501845
    Cl(r) = 0.350416

forceCoeffs canard_3 write:
    Cm    = 0.300599
    Cd    = 0.0958671
    Cl    = 0.852261
    Cl(f) = 0.72673
    Cl(r) = 0.125531

forceCoeffs canard_4 write:
    Cm    = 0.525484
    Cd    = 0.0958671
    Cl    = 0.852261
    Cl(f) = 0.951614
    Cl(r) = -0.0993538

forceCoeffs canard_5 write:
    Cm    = 0.750369
    Cd    = 0.0958671
    Cl    = 0.852261
    Cl(f) = 1.1765
    Cl(r) = -0.324238

forceCoeffs canard_6 write:
    Cm    = 0.975253
    Cd    = 0.0958671
    Cl    = 0.852261
    Cl(f) = 1.40138
    Cl(r) = -0.549123

forceCoeffs canard_7 write:
    Cm    = 1.20014
    Cd    = 0.0958671
    Cl    = 0.852261
    Cl(f) = 1.62627
    Cl(r) = -0.774008

forceCoeffs canard_8 write:
    Cm    = 1.42502
    Cd    = 0.0958671
    Cl    = 0.852261
    Cl(f) = 1.85115
    Cl(r) = -0.998892

forceCoeffs canard_9 write:
    Cm    = 1.64991
    Cd    = 0.0958671
    Cl    = 0.852261
    Cl(f) = 2.07604
    Cl(r) = -1.22378

forceCoeffs canard_10 write:
    Cm    = 1.87479
    Cd    = 0.0958671
    Cl    = 0.852261
    Cl(f) = 2.30092
    Cl(r) = -1.44866

forceCoeffs canard_11 write:
    Cm    = 2.09968
    Cd    = 0.0958671
    Cl    = 0.852261
    Cl(f) = 2.52581
    Cl(r) = -1.67355

Time = 18s

smoothSolver:  Solving for Ux, Initial residual = 0.00518197, Final residual = 0.000279834, No Iterations 4
smoothSolver:  Solving for Uy, Initial residual = 0.00632861, Final residual = 0.000350098, No Iterations 4
smoothSolver:  Solving for Uz, Initial residual = 0.0511805, Final residual = 0.00274681, No Iterations 4
GAMG:  Solving for p, Initial residual = 0.0438883, Final residual = 0.00406463, No Iterations 2
time step continuity errors : sum local = 0.000523301, global = 2.92781e-05, cumulative = 7.72513e-05
smoothSolver:  Solving for nuTilda, Initial residual = 0.000603683, Final residual = 2.90215e-05, No Iterations 4
ExecutionTime = 310.914 s  ClockTime = 319 s

forceCoeffs canard_1 write:
    Cm    = -0.157
    Cd    = 0.0994256
    Cl    = 0.857365
    Cl(f) = 0.271683
    Cl(r) = 0.585682

forceCoeffs canard_2 write:
    Cm    = 0.0692999
    Cd    = 0.0994256
    Cl    = 0.857365
    Cl(f) = 0.497982
    Cl(r) = 0.359383

forceCoeffs canard_3 write:
    Cm    = 0.2956
    Cd    = 0.0994256
    Cl    = 0.857365
    Cl(f) = 0.724282
    Cl(r) = 0.133083

forceCoeffs canard_4 write:
    Cm    = 0.521899
    Cd    = 0.0994256
    Cl    = 0.857365
    Cl(f) = 0.950582
    Cl(r) = -0.093217

forceCoeffs canard_5 write:
    Cm    = 0.748199
    Cd    = 0.0994256
    Cl    = 0.857365
    Cl(f) = 1.17688
    Cl(r) = -0.319517

forceCoeffs canard_6 write:
    Cm    = 0.974499
    Cd    = 0.0994256
    Cl    = 0.857365
    Cl(f) = 1.40318
    Cl(r) = -0.545817

forceCoeffs canard_7 write:
    Cm    = 1.2008
    Cd    = 0.0994256
    Cl    = 0.857365
    Cl(f) = 1.62948
    Cl(r) = -0.772116

forceCoeffs canard_8 write:
    Cm    = 1.4271
    Cd    = 0.0994256
    Cl    = 0.857365
    Cl(f) = 1.85578
    Cl(r) = -0.998416

forceCoeffs canard_9 write:
    Cm    = 1.6534
    Cd    = 0.0994256
    Cl    = 0.857365
    Cl(f) = 2.08208
    Cl(r) = -1.22472

forceCoeffs canard_10 write:
    Cm    = 1.8797
    Cd    = 0.0994256
    Cl    = 0.857365
    Cl(f) = 2.30838
    Cl(r) = -1.45102

forceCoeffs canard_11 write:
    Cm    = 2.106
    Cd    = 0.0994256
    Cl    = 0.857365
    Cl(f) = 2.53468
    Cl(r) = -1.67732

Time = 19s

smoothSolver:  Solving for Ux, Initial residual = 0.00501505, Final residual = 0.000268828, No Iterations 4
smoothSolver:  Solving for Uy, Initial residual = 0.00623719, Final residual = 0.000339407, No Iterations 4
smoothSolver:  Solving for Uz, Initial residual = 0.0457874, Final residual = 0.00241836, No Iterations 4
GAMG:  Solving for p, Initial residual = 0.0428342, Final residual = 0.002009, No Iterations 3
time step continuity errors : sum local = 0.000249802, global = 3.17407e-05, cumulative = 0.000108992
smoothSolver:  Solving for nuTilda, Initial residual = 0.000561693, Final residual = 2.80539e-05, No Iterations 4
ExecutionTime = 322.301 s  ClockTime = 332 s

forceCoeffs canard_1 write:
    Cm    = -0.149574
    Cd    = 0.0980341
    Cl    = 0.813487
    Cl(f) = 0.25717
    Cl(r) = 0.556317

forceCoeffs canard_2 write:
    Cm    = 0.0652293
    Cd    = 0.0980341
    Cl    = 0.813487
    Cl(f) = 0.471973
    Cl(r) = 0.341514

forceCoeffs canard_3 write:
    Cm    = 0.280032
    Cd    = 0.0980341
    Cl    = 0.813487
    Cl(f) = 0.686776
    Cl(r) = 0.126711

forceCoeffs canard_4 write:
    Cm    = 0.494835
    Cd    = 0.0980341
    Cl    = 0.813487
    Cl(f) = 0.901579
    Cl(r) = -0.0880914

forceCoeffs canard_5 write:
    Cm    = 0.709638
    Cd    = 0.0980341
    Cl    = 0.813487
    Cl(f) = 1.11638
    Cl(r) = -0.302894

forceCoeffs canard_6 write:
    Cm    = 0.924441
    Cd    = 0.0980341
    Cl    = 0.813487
    Cl(f) = 1.33118
    Cl(r) = -0.517697

forceCoeffs canard_7 write:
    Cm    = 1.13924
    Cd    = 0.0980341
    Cl    = 0.813487
    Cl(f) = 1.54599
    Cl(r) = -0.7325

forceCoeffs canard_8 write:
    Cm    = 1.35405
    Cd    = 0.0980341
    Cl    = 0.813487
    Cl(f) = 1.76079
    Cl(r) = -0.947303

forceCoeffs canard_9 write:
    Cm    = 1.56885
    Cd    = 0.0980341
    Cl    = 0.813487
    Cl(f) = 1.97559
    Cl(r) = -1.16211

forceCoeffs canard_10 write:
    Cm    = 1.78365
    Cd    = 0.0980341
    Cl    = 0.813487
    Cl(f) = 2.1904
    Cl(r) = -1.37691

forceCoeffs canard_11 write:
    Cm    = 1.99846
    Cd    = 0.0980341
    Cl    = 0.813487
    Cl(f) = 2.4052
    Cl(r) = -1.59171

Time = 20s

smoothSolver:  Solving for Ux, Initial residual = 0.00461503, Final residual = 0.000237092, No Iterations 4
smoothSolver:  Solving for Uy, Initial residual = 0.00576908, Final residual = 0.000316803, No Iterations 4
smoothSolver:  Solving for Uz, Initial residual = 0.0373107, Final residual = 0.00195339, No Iterations 4
GAMG:  Solving for p, Initial residual = 0.0465866, Final residual = 0.00436684, No Iterations 2
time step continuity errors : sum local = 0.000449665, global = 2.66497e-05, cumulative = 0.000135642
smoothSolver:  Solving for nuTilda, Initial residual = 0.000529769, Final residual = 2.72906e-05, No Iterations 4
ExecutionTime = 341.155 s  ClockTime = 353 s

forceCoeffs canard_1 write:
    Cm    = -0.137833
    Cd    = 0.0942704
    Cl    = 0.782579
    Cl(f) = 0.253457
    Cl(r) = 0.529122

forceCoeffs canard_2 write:
    Cm    = 0.0688081
    Cd    = 0.0942704
    Cl    = 0.782579
    Cl(f) = 0.460098
    Cl(r) = 0.322482

forceCoeffs canard_3 write:
    Cm    = 0.275449
    Cd    = 0.0942704
    Cl    = 0.782579
    Cl(f) = 0.666738
    Cl(r) = 0.115841

forceCoeffs canard_4 write:
    Cm    = 0.482089
    Cd    = 0.0942704
    Cl    = 0.782579
    Cl(f) = 0.873379
    Cl(r) = -0.0907997

forceCoeffs canard_5 write:
    Cm    = 0.68873
    Cd    = 0.0942704
    Cl    = 0.782579
    Cl(f) = 1.08002
    Cl(r) = -0.29744

forceCoeffs canard_6 write:
    Cm    = 0.895371
    Cd    = 0.0942704
    Cl    = 0.782579
    Cl(f) = 1.28666
    Cl(r) = -0.504081

forceCoeffs canard_7 write:
    Cm    = 1.10201
    Cd    = 0.0942704
    Cl    = 0.782579
    Cl(f) = 1.4933
    Cl(r) = -0.710722

forceCoeffs canard_8 write:
    Cm    = 1.30865
    Cd    = 0.0942704
    Cl    = 0.782579
    Cl(f) = 1.69994
    Cl(r) = -0.917363

forceCoeffs canard_9 write:
    Cm    = 1.51529
    Cd    = 0.0942704
    Cl    = 0.782579
    Cl(f) = 1.90658
    Cl(r) = -1.124

forceCoeffs canard_10 write:
    Cm    = 1.72193
    Cd    = 0.0942704
    Cl    = 0.782579
    Cl(f) = 2.11322
    Cl(r) = -1.33064

forceCoeffs canard_11 write:
    Cm    = 1.92857
    Cd    = 0.0942704
    Cl    = 0.782579
    Cl(f) = 2.31986
    Cl(r) = -1.53728

Time = 21s

smoothSolver:  Solving for Ux, Initial residual = 0.00432646, Final residual = 0.000218393, No Iterations 4
smoothSolver:  Solving for Uy, Initial residual = 0.00529195, Final residual = 0.000290269, No Iterations 4
smoothSolver:  Solving for Uz, Initial residual = 0.0336012, Final residual = 0.00180225, No Iterations 4
GAMG:  Solving for p, Initial residual = 0.0511757, Final residual = 0.00478316, No Iterations 2
time step continuity errors : sum local = 0.000433703, global = 1.45866e-05, cumulative = 0.000150228
smoothSolver:  Solving for nuTilda, Initial residual = 0.000513559, Final residual = 2.68624e-05, No Iterations 4
ExecutionTime = 356.595 s  ClockTime = 369 s

forceCoeffs canard_1 write:
    Cm    = -0.128351
    Cd    = 0.0927076
    Cl    = 0.770598
    Cl(f) = 0.256948
    Cl(r) = 0.51365

forceCoeffs canard_2 write:
    Cm    = 0.0751231
    Cd    = 0.0927076
    Cl    = 0.770598
    Cl(f) = 0.460422
    Cl(r) = 0.310176

forceCoeffs canard_3 write:
    Cm    = 0.278597
    Cd    = 0.0927076
    Cl    = 0.770598
    Cl(f) = 0.663896
    Cl(r) = 0.106702

forceCoeffs canard_4 write:
    Cm    = 0.482071
    Cd    = 0.0927076
    Cl    = 0.770598
    Cl(f) = 0.86737
    Cl(r) = -0.0967726

forceCoeffs canard_5 write:
    Cm    = 0.685546
    Cd    = 0.0927076
    Cl    = 0.770598
    Cl(f) = 1.07084
    Cl(r) = -0.300247

forceCoeffs canard_6 write:
    Cm    = 0.88902
    Cd    = 0.0927076
    Cl    = 0.770598
    Cl(f) = 1.27432
    Cl(r) = -0.503721

forceCoeffs canard_7 write:
    Cm    = 1.09249
    Cd    = 0.0927076
    Cl    = 0.770598
    Cl(f) = 1.47779
    Cl(r) = -0.707195

forceCoeffs canard_8 write:
    Cm    = 1.29597
    Cd    = 0.0927076
    Cl    = 0.770598
    Cl(f) = 1.68127
    Cl(r) = -0.910669

forceCoeffs canard_9 write:
    Cm    = 1.49944
    Cd    = 0.0927076
    Cl    = 0.770598
    Cl(f) = 1.88474
    Cl(r) = -1.11414

forceCoeffs canard_10 write:
    Cm    = 1.70292
    Cd    = 0.0927076
    Cl    = 0.770598
    Cl(f) = 2.08822
    Cl(r) = -1.31762

forceCoeffs canard_11 write:
    Cm    = 1.90639
    Cd    = 0.0927076
    Cl    = 0.770598
    Cl(f) = 2.29169
    Cl(r) = -1.52109

Time = 22s

smoothSolver:  Solving for Ux, Initial residual = 0.00393445, Final residual = 0.000201333, No Iterations 4
smoothSolver:  Solving for Uy, Initial residual = 0.00496579, Final residual = 0.000269261, No Iterations 4
smoothSolver:  Solving for Uz, Initial residual = 0.0311193, Final residual = 0.00168679, No Iterations 4
GAMG:  Solving for p, Initial residual = 0.0484077, Final residual = 0.00460395, No Iterations 2
time step continuity errors : sum local = 0.000407821, global = -9.24112e-06, cumulative = 0.000140987
smoothSolver:  Solving for nuTilda, Initial residual = 0.000503054, Final residual = 2.66348e-05, No Iterations 4
ExecutionTime = 368.501 s  ClockTime = 380 s

forceCoeffs canard_1 write:
    Cm    = -0.129916
    Cd    = 0.0987008
    Cl    = 0.785654
    Cl(f) = 0.262911
    Cl(r) = 0.522743

forceCoeffs canard_2 write:
    Cm    = 0.077629
    Cd    = 0.0987008
    Cl    = 0.785654
    Cl(f) = 0.470456
    Cl(r) = 0.315198

forceCoeffs canard_3 write:
    Cm    = 0.285174
    Cd    = 0.0987008
    Cl    = 0.785654
    Cl(f) = 0.678001
    Cl(r) = 0.107653

forceCoeffs canard_4 write:
    Cm    = 0.49272
    Cd    = 0.0987008
    Cl    = 0.785654
    Cl(f) = 0.885547
    Cl(r) = -0.0998927

forceCoeffs canard_5 write:
    Cm    = 0.700265
    Cd    = 0.0987008
    Cl    = 0.785654
    Cl(f) = 1.09309
    Cl(r) = -0.307438

forceCoeffs canard_6 write:
    Cm    = 0.90781
    Cd    = 0.0987008
    Cl    = 0.785654
    Cl(f) = 1.30064
    Cl(r) = -0.514983

forceCoeffs canard_7 write:
    Cm    = 1.11536
    Cd    = 0.0987008
    Cl    = 0.785654
    Cl(f) = 1.50818
    Cl(r) = -0.722529

forceCoeffs canard_8 write:
    Cm    = 1.3229
    Cd    = 0.0987008
    Cl    = 0.785654
    Cl(f) = 1.71573
    Cl(r) = -0.930074

forceCoeffs canard_9 write:
    Cm    = 1.53045
    Cd    = 0.0987008
    Cl    = 0.785654
    Cl(f) = 1.92327
    Cl(r) = -1.13762

forceCoeffs canard_10 write:
    Cm    = 1.73799
    Cd    = 0.0987008
    Cl    = 0.785654
    Cl(f) = 2.13082
    Cl(r) = -1.34516

forceCoeffs canard_11 write:
    Cm    = 1.94554
    Cd    = 0.0987008
    Cl    = 0.785654
    Cl(f) = 2.33836
    Cl(r) = -1.55271

Time = 23s

smoothSolver:  Solving for Ux, Initial residual = 0.00380383, Final residual = 0.000198518, No Iterations 4
smoothSolver:  Solving for Uy, Initial residual = 0.00486015, Final residual = 0.00026335, No Iterations 4
smoothSolver:  Solving for Uz, Initial residual = 0.0300476, Final residual = 0.00161019, No Iterations 4
GAMG:  Solving for p, Initial residual = 0.0416486, Final residual = 0.00397831, No Iterations 2
time step continuity errors : sum local = 0.000377465, global = -9.10021e-06, cumulative = 0.000131887
smoothSolver:  Solving for nuTilda, Initial residual = 0.000494186, Final residual = 2.64827e-05, No Iterations 4
ExecutionTime = 379.626 s  ClockTime = 392 s

forceCoeffs canard_1 write:
    Cm    = -0.138616
    Cd    = 0.107741
    Cl    = 0.818905
    Cl(f) = 0.270836
    Cl(r) = 0.548069

forceCoeffs canard_2 write:
    Cm    = 0.0778239
    Cd    = 0.107741
    Cl    = 0.818905
    Cl(f) = 0.487276
    Cl(r) = 0.331629

forceCoeffs canard_3 write:
    Cm    = 0.294264
    Cd    = 0.107741
    Cl    = 0.818905
    Cl(f) = 0.703717
    Cl(r) = 0.115188

forceCoeffs canard_4 write:
    Cm    = 0.510705
    Cd    = 0.107741
    Cl    = 0.818905
    Cl(f) = 0.920157
    Cl(r) = -0.101252

forceCoeffs canard_5 write:
    Cm    = 0.727145
    Cd    = 0.107741
    Cl    = 0.818905
    Cl(f) = 1.1366
    Cl(r) = -0.317693

forceCoeffs canard_6 write:
    Cm    = 0.943585
    Cd    = 0.107741
    Cl    = 0.818905
    Cl(f) = 1.35304
    Cl(r) = -0.534133

forceCoeffs canard_7 write:
    Cm    = 1.16003
    Cd    = 0.107741
    Cl    = 0.818905
    Cl(f) = 1.56948
    Cl(r) = -0.750573

forceCoeffs canard_8 write:
    Cm    = 1.37647
    Cd    = 0.107741
    Cl    = 0.818905
    Cl(f) = 1.78592
    Cl(r) = -0.967014

forceCoeffs canard_9 write:
    Cm    = 1.59291
    Cd    = 0.107741
    Cl    = 0.818905
    Cl(f) = 2.00236
    Cl(r) = -1.18345

forceCoeffs canard_10 write:
    Cm    = 1.80935
    Cd    = 0.107741
    Cl    = 0.818905
    Cl(f) = 2.2188
    Cl(r) = -1.39989

forceCoeffs canard_11 write:
    Cm    = 2.02579
    Cd    = 0.107741
    Cl    = 0.818905
    Cl(f) = 2.43524
    Cl(r) = -1.61633

Time = 24s

smoothSolver:  Solving for Ux, Initial residual = 0.00393015, Final residual = 0.000200996, No Iterations 4
smoothSolver:  Solving for Uy, Initial residual = 0.00473706, Final residual = 0.000254634, No Iterations 4
smoothSolver:  Solving for Uz, Initial residual = 0.0298092, Final residual = 0.00157628, No Iterations 4
GAMG:  Solving for p, Initial residual = 0.0358606, Final residual = 0.00339286, No Iterations 2
time step continuity errors : sum local = 0.000351411, global = -2.28801e-05, cumulative = 0.000109007
smoothSolver:  Solving for nuTilda, Initial residual = 0.000486071, Final residual = 2.62993e-05, No Iterations 4
ExecutionTime = 389.976 s  ClockTime = 402 s

forceCoeffs canard_1 write:
    Cm    = -0.142996
    Cd    = 0.111207
    Cl    = 0.844993
    Cl(f) = 0.2795
    Cl(r) = 0.565493

forceCoeffs canard_2 write:
    Cm    = 0.0803402
    Cd    = 0.111207
    Cl    = 0.844993
    Cl(f) = 0.502837
    Cl(r) = 0.342156

forceCoeffs canard_3 write:
    Cm    = 0.303677
    Cd    = 0.111207
    Cl    = 0.844993
    Cl(f) = 0.726173
    Cl(r) = 0.11882

forceCoeffs canard_4 write:
    Cm    = 0.527013
    Cd    = 0.111207
    Cl    = 0.844993
    Cl(f) = 0.94951
    Cl(r) = -0.104516

forceCoeffs canard_5 write:
    Cm    = 0.750349
    Cd    = 0.111207
    Cl    = 0.844993
    Cl(f) = 1.17285
    Cl(r) = -0.327853

forceCoeffs canard_6 write:
    Cm    = 0.973686
    Cd    = 0.111207
    Cl    = 0.844993
    Cl(f) = 1.39618
    Cl(r) = -0.551189

forceCoeffs canard_7 write:
    Cm    = 1.19702
    Cd    = 0.111207
    Cl    = 0.844993
    Cl(f) = 1.61952
    Cl(r) = -0.774526

forceCoeffs canard_8 write:
    Cm    = 1.42036
    Cd    = 0.111207
    Cl    = 0.844993
    Cl(f) = 1.84286
    Cl(r) = -0.997862

forceCoeffs canard_9 write:
    Cm    = 1.6437
    Cd    = 0.111207
    Cl    = 0.844993
    Cl(f) = 2.06619
    Cl(r) = -1.2212

forceCoeffs canard_10 write:
    Cm    = 1.86703
    Cd    = 0.111207
    Cl    = 0.844993
    Cl(f) = 2.28953
    Cl(r) = -1.44453

forceCoeffs canard_11 write:
    Cm    = 2.09037
    Cd    = 0.111207
    Cl    = 0.844993
    Cl(f) = 2.51286
    Cl(r) = -1.66787

Time = 25s

smoothSolver:  Solving for Ux, Initial residual = 0.00392209, Final residual = 0.00019584, No Iterations 4
smoothSolver:  Solving for Uy, Initial residual = 0.00464937, Final residual = 0.000246938, No Iterations 4
smoothSolver:  Solving for Uz, Initial residual = 0.0290161, Final residual = 0.00149981, No Iterations 4
GAMG:  Solving for p, Initial residual = 0.0321434, Final residual = 0.00306536, No Iterations 2
time step continuity errors : sum local = 0.000331522, global = -1.49538e-05, cumulative = 9.40531e-05
smoothSolver:  Solving for nuTilda, Initial residual = 0.000480463, Final residual = 2.60955e-05, No Iterations 4
ExecutionTime = 400.84 s  ClockTime = 413 s

forceCoeffs canard_1 write:
    Cm    = -0.137282
    Cd    = 0.106072
    Cl    = 0.853141
    Cl(f) = 0.289288
    Cl(r) = 0.563852

forceCoeffs canard_2 write:
    Cm    = 0.0880659
    Cd    = 0.106072
    Cl    = 0.853141
    Cl(f) = 0.514636
    Cl(r) = 0.338504

forceCoeffs canard_3 write:
    Cm    = 0.313414
    Cd    = 0.106072
    Cl    = 0.853141
    Cl(f) = 0.739984
    Cl(r) = 0.113156

forceCoeffs canard_4 write:
    Cm    = 0.538762
    Cd    = 0.106072
    Cl    = 0.853141
    Cl(f) = 0.965332
    Cl(r) = -0.112191

forceCoeffs canard_5 write:
    Cm    = 0.76411
    Cd    = 0.106072
    Cl    = 0.853141
    Cl(f) = 1.19068
    Cl(r) = -0.337539

forceCoeffs canard_6 write:
    Cm    = 0.989458
    Cd    = 0.106072
    Cl    = 0.853141
    Cl(f) = 1.41603
    Cl(r) = -0.562887

forceCoeffs canard_7 write:
    Cm    = 1.21481
    Cd    = 0.106072
    Cl    = 0.853141
    Cl(f) = 1.64138
    Cl(r) = -0.788235

forceCoeffs canard_8 write:
    Cm    = 1.44015
    Cd    = 0.106072
    Cl    = 0.853141
    Cl(f) = 1.86672
    Cl(r) = -1.01358

forceCoeffs canard_9 write:
    Cm    = 1.6655
    Cd    = 0.106072
    Cl    = 0.853141
    Cl(f) = 2.09207
    Cl(r) = -1.23893

forceCoeffs canard_10 write:
    Cm    = 1.89085
    Cd    = 0.106072
    Cl    = 0.853141
    Cl(f) = 2.31742
    Cl(r) = -1.46428

forceCoeffs canard_11 write:
    Cm    = 2.1162
    Cd    = 0.106072
    Cl    = 0.853141
    Cl(f) = 2.54277
    Cl(r) = -1.68963

Time = 26s

smoothSolver:  Solving for Ux, Initial residual = 0.00370399, Final residual = 0.000188788, No Iterations 4
smoothSolver:  Solving for Uy, Initial residual = 0.00474185, Final residual = 0.000250231, No Iterations 4
smoothSolver:  Solving for Uz, Initial residual = 0.028525, Final residual = 0.00145809, No Iterations 4
GAMG:  Solving for p, Initial residual = 0.0310156, Final residual = 0.00289719, No Iterations 2
time step continuity errors : sum local = 0.000311828, global = -1.1073e-06, cumulative = 9.29458e-05
smoothSolver:  Solving for nuTilda, Initial residual = 0.000476163, Final residual = 2.58914e-05, No Iterations 4
ExecutionTime = 412.057 s  ClockTime = 424 s

forceCoeffs canard_1 write:
    Cm    = -0.123966
    Cd    = 0.0951859
    Cl    = 0.842398
    Cl(f) = 0.297233
    Cl(r) = 0.545165

forceCoeffs canard_2 write:
    Cm    = 0.0983261
    Cd    = 0.0951859
    Cl    = 0.842398
    Cl(f) = 0.519525
    Cl(r) = 0.322873

forceCoeffs canard_3 write:
    Cm    = 0.320618
    Cd    = 0.0951859
    Cl    = 0.842398
    Cl(f) = 0.741817
    Cl(r) = 0.100581

forceCoeffs canard_4 write:
    Cm    = 0.54291
    Cd    = 0.0951859
    Cl    = 0.842398
    Cl(f) = 0.964109
    Cl(r) = -0.121711

forceCoeffs canard_5 write:
    Cm    = 0.765202
    Cd    = 0.0951859
    Cl    = 0.842398
    Cl(f) = 1.1864
    Cl(r) = -0.344003

forceCoeffs canard_6 write:
    Cm    = 0.987494
    Cd    = 0.0951859
    Cl    = 0.842398
    Cl(f) = 1.40869
    Cl(r) = -0.566295

forceCoeffs canard_7 write:
    Cm    = 1.20979
    Cd    = 0.0951859
    Cl    = 0.842398
    Cl(f) = 1.63098
    Cl(r) = -0.788587

forceCoeffs canard_8 write:
    Cm    = 1.43208
    Cd    = 0.0951859
    Cl    = 0.842398
    Cl(f) = 1.85328
    Cl(r) = -1.01088

forceCoeffs canard_9 write:
    Cm    = 1.65437
    Cd    = 0.0951859
    Cl    = 0.842398
    Cl(f) = 2.07557
    Cl(r) = -1.23317

forceCoeffs canard_10 write:
    Cm    = 1.87666
    Cd    = 0.0951859
    Cl    = 0.842398
    Cl(f) = 2.29786
    Cl(r) = -1.45546

forceCoeffs canard_11 write:
    Cm    = 2.09895
    Cd    = 0.0951859
    Cl    = 0.842398
    Cl(f) = 2.52015
    Cl(r) = -1.67776

Time = 27s

smoothSolver:  Solving for Ux, Initial residual = 0.00353388, Final residual = 0.000183542, No Iterations 4
smoothSolver:  Solving for Uy, Initial residual = 0.00465332, Final residual = 0.000244196, No Iterations 4
smoothSolver:  Solving for Uz, Initial residual = 0.0270122, Final residual = 0.00138162, No Iterations 4
GAMG:  Solving for p, Initial residual = 0.0306461, Final residual = 0.00277545, No Iterations 2
time step continuity errors : sum local = 0.000288308, global = 1.26057e-05, cumulative = 0.000105551
smoothSolver:  Solving for nuTilda, Initial residual = 0.000472944, Final residual = 2.57122e-05, No Iterations 4
ExecutionTime = 422.082 s  ClockTime = 434 s

forceCoeffs canard_1 write:
    Cm    = -0.111908
    Cd    = 0.0858521
    Cl    = 0.823783
    Cl(f) = 0.299984
    Cl(r) = 0.523799

forceCoeffs canard_2 write:
    Cm    = 0.105307
    Cd    = 0.0858521
    Cl    = 0.823783
    Cl(f) = 0.517199
    Cl(r) = 0.306584

forceCoeffs canard_3 write:
    Cm    = 0.322522
    Cd    = 0.0858521
    Cl    = 0.823783
    Cl(f) = 0.734413
    Cl(r) = 0.0893698

forceCoeffs canard_4 write:
    Cm    = 0.539736
    Cd    = 0.0858521
    Cl    = 0.823783
    Cl(f) = 0.951628
    Cl(r) = -0.127845

forceCoeffs canard_5 write:
    Cm    = 0.756951
    Cd    = 0.0858521
    Cl    = 0.823783
    Cl(f) = 1.16884
    Cl(r) = -0.34506

forceCoeffs canard_6 write:
    Cm    = 0.974166
    Cd    = 0.0858521
    Cl    = 0.823783
    Cl(f) = 1.38606
    Cl(r) = -0.562274

forceCoeffs canard_7 write:
    Cm    = 1.19138
    Cd    = 0.0858521
    Cl    = 0.823783
    Cl(f) = 1.60327
    Cl(r) = -0.779489

forceCoeffs canard_8 write:
    Cm    = 1.40859
    Cd    = 0.0858521
    Cl    = 0.823783
    Cl(f) = 1.82049
    Cl(r) = -0.996703

forceCoeffs canard_9 write:
    Cm    = 1.62581
    Cd    = 0.0858521
    Cl    = 0.823783
    Cl(f) = 2.0377
    Cl(r) = -1.21392

forceCoeffs canard_10 write:
    Cm    = 1.84302
    Cd    = 0.0858521
    Cl    = 0.823783
    Cl(f) = 2.25492
    Cl(r) = -1.43113

forceCoeffs canard_11 write:
    Cm    = 2.06024
    Cd    = 0.0858521
    Cl    = 0.823783
    Cl(f) = 2.47213
    Cl(r) = -1.64835

Time = 28s

smoothSolver:  Solving for Ux, Initial residual = 0.00351037, Final residual = 0.00017348, No Iterations 4
smoothSolver:  Solving for Uy, Initial residual = 0.00445172, Final residual = 0.000233169, No Iterations 4
smoothSolver:  Solving for Uz, Initial residual = 0.0244469, Final residual = 0.00124519, No Iterations 4
GAMG:  Solving for p, Initial residual = 0.0289235, Final residual = 0.00273788, No Iterations 2
time step continuity errors : sum local = 0.000275432, global = 8.8018e-06, cumulative = 0.000114353
smoothSolver:  Solving for nuTilda, Initial residual = 0.000471618, Final residual = 2.55762e-05, No Iterations 4
ExecutionTime = 431.918 s  ClockTime = 444 s

forceCoeffs canard_1 write:
    Cm    = -0.107356
    Cd    = 0.0828972
    Cl    = 0.809543
    Cl(f) = 0.297416
    Cl(r) = 0.512127

forceCoeffs canard_2 write:
    Cm    = 0.10607
    Cd    = 0.0828972
    Cl    = 0.809543
    Cl(f) = 0.510842
    Cl(r) = 0.298701

forceCoeffs canard_3 write:
    Cm    = 0.319496
    Cd    = 0.0828972
    Cl    = 0.809543
    Cl(f) = 0.724268
    Cl(r) = 0.0852748

forceCoeffs canard_4 write:
    Cm    = 0.532923
    Cd    = 0.0828972
    Cl    = 0.809543
    Cl(f) = 0.937694
    Cl(r) = -0.128151

forceCoeffs canard_5 write:
    Cm    = 0.746349
    Cd    = 0.0828972
    Cl    = 0.809543
    Cl(f) = 1.15112
    Cl(r) = -0.341577

forceCoeffs canard_6 write:
    Cm    = 0.959775
    Cd    = 0.0828972
    Cl    = 0.809543
    Cl(f) = 1.36455
    Cl(r) = -0.555003

forceCoeffs canard_7 write:
    Cm    = 1.1732
    Cd    = 0.0828972
    Cl    = 0.809543
    Cl(f) = 1.57797
    Cl(r) = -0.76843

forceCoeffs canard_8 write:
    Cm    = 1.38663
    Cd    = 0.0828972
    Cl    = 0.809543
    Cl(f) = 1.7914
    Cl(r) = -0.981856

forceCoeffs canard_9 write:
    Cm    = 1.60005
    Cd    = 0.0828972
    Cl    = 0.809543
    Cl(f) = 2.00482
    Cl(r) = -1.19528

forceCoeffs canard_10 write:
    Cm    = 1.81348
    Cd    = 0.0828972
    Cl    = 0.809543
    Cl(f) = 2.21825
    Cl(r) = -1.40871

forceCoeffs canard_11 write:
    Cm    = 2.02691
    Cd    = 0.0828972
    Cl    = 0.809543
    Cl(f) = 2.43168
    Cl(r) = -1.62213

Time = 29s

smoothSolver:  Solving for Ux, Initial residual = 0.00357528, Final residual = 0.000164179, No Iterations 4
smoothSolver:  Solving for Uy, Initial residual = 0.004276, Final residual = 0.000229384, No Iterations 4
smoothSolver:  Solving for Uz, Initial residual = 0.0219451, Final residual = 0.00112277, No Iterations 4
GAMG:  Solving for p, Initial residual = 0.0272669, Final residual = 0.00244568, No Iterations 2
time step continuity errors : sum local = 0.000245221, global = 1.49927e-05, cumulative = 0.000129346
smoothSolver:  Solving for nuTilda, Initial residual = 0.000473117, Final residual = 2.54758e-05, No Iterations 4
ExecutionTime = 442.799 s  ClockTime = 455 s

forceCoeffs canard_1 write:
    Cm    = -0.110573
    Cd    = 0.0865267
    Cl    = 0.807562
    Cl(f) = 0.293208
    Cl(r) = 0.514354

forceCoeffs canard_2 write:
    Cm    = 0.102418
    Cd    = 0.0865267
    Cl    = 0.807562
    Cl(f) = 0.506199
    Cl(r) = 0.301363

forceCoeffs canard_3 write:
    Cm    = 0.31541
    Cd    = 0.0865267
    Cl    = 0.807562
    Cl(f) = 0.719191
    Cl(r) = 0.0883712

forceCoeffs canard_4 write:
    Cm    = 0.528401
    Cd    = 0.0865267
    Cl    = 0.807562
    Cl(f) = 0.932182
    Cl(r) = -0.12462

forceCoeffs canard_5 write:
    Cm    = 0.741393
    Cd    = 0.0865267
    Cl    = 0.807562
    Cl(f) = 1.14517
    Cl(r) = -0.337612

forceCoeffs canard_6 write:
    Cm    = 0.954384
    Cd    = 0.0865267
    Cl    = 0.807562
    Cl(f) = 1.35817
    Cl(r) = -0.550603

forceCoeffs canard_7 write:
    Cm    = 1.16738
    Cd    = 0.0865267
    Cl    = 0.807562
    Cl(f) = 1.57116
    Cl(r) = -0.763595

forceCoeffs canard_8 write:
    Cm    = 1.38037
    Cd    = 0.0865267
    Cl    = 0.807562
    Cl(f) = 1.78415
    Cl(r) = -0.976587

forceCoeffs canard_9 write:
    Cm    = 1.59336
    Cd    = 0.0865267
    Cl    = 0.807562
    Cl(f) = 1.99714
    Cl(r) = -1.18958

forceCoeffs canard_10 write:
    Cm    = 1.80635
    Cd    = 0.0865267
    Cl    = 0.807562
    Cl(f) = 2.21013
    Cl(r) = -1.40257

forceCoeffs canard_11 write:
    Cm    = 2.01934
    Cd    = 0.0865267
    Cl    = 0.807562
    Cl(f) = 2.42312
    Cl(r) = -1.61556

Time = 30s

smoothSolver:  Solving for Ux, Initial residual = 0.0034415, Final residual = 0.000161741, No Iterations 4
smoothSolver:  Solving for Uy, Initial residual = 0.00418597, Final residual = 0.000228632, No Iterations 4
smoothSolver:  Solving for Uz, Initial residual = 0.0209221, Final residual = 0.00110078, No Iterations 4
GAMG:  Solving for p, Initial residual = 0.0262146, Final residual = 0.00215436, No Iterations 2
time step continuity errors : sum local = 0.000221624, global = 1.09289e-05, cumulative = 0.000140275
smoothSolver:  Solving for nuTilda, Initial residual = 0.000474301, Final residual = 2.54436e-05, No Iterations 4
ExecutionTime = 464.665 s  ClockTime = 477 s

forceCoeffs canard_1 write:
    Cm    = -0.116272
    Cd    = 0.0921938
    Cl    = 0.815938
    Cl(f) = 0.291697
    Cl(r) = 0.524241

forceCoeffs canard_2 write:
    Cm    = 0.0990379
    Cd    = 0.0921938
    Cl    = 0.815938
    Cl(f) = 0.507007
    Cl(r) = 0.308931

forceCoeffs canard_3 write:
    Cm    = 0.314348
    Cd    = 0.0921938
    Cl    = 0.815938
    Cl(f) = 0.722317
    Cl(r) = 0.0936214

forceCoeffs canard_4 write:
    Cm    = 0.529657
    Cd    = 0.0921938
    Cl    = 0.815938
    Cl(f) = 0.937626
    Cl(r) = -0.121688

forceCoeffs canard_5 write:
    Cm    = 0.744967
    Cd    = 0.0921938
    Cl    = 0.815938
    Cl(f) = 1.15294
    Cl(r) = -0.336998

forceCoeffs canard_6 write:
    Cm    = 0.960277
    Cd    = 0.0921938
    Cl    = 0.815938
    Cl(f) = 1.36825
    Cl(r) = -0.552308

forceCoeffs canard_7 write:
    Cm    = 1.17559
    Cd    = 0.0921938
    Cl    = 0.815938
    Cl(f) = 1.58356
    Cl(r) = -0.767617

forceCoeffs canard_8 write:
    Cm    = 1.3909
    Cd    = 0.0921938
    Cl    = 0.815938
    Cl(f) = 1.79887
    Cl(r) = -0.982927

forceCoeffs canard_9 write:
    Cm    = 1.60621
    Cd    = 0.0921938
    Cl    = 0.815938
    Cl(f) = 2.01417
    Cl(r) = -1.19824

forceCoeffs canard_10 write:
    Cm    = 1.82152
    Cd    = 0.0921938
    Cl    = 0.815938
    Cl(f) = 2.22948
    Cl(r) = -1.41355

forceCoeffs canard_11 write:
    Cm    = 2.03683
    Cd    = 0.0921938
    Cl    = 0.815938
    Cl(f) = 2.44479
    Cl(r) = -1.62886

Time = 31s

smoothSolver:  Solving for Ux, Initial residual = 0.00317922, Final residual = 0.000161705, No Iterations 4
smoothSolver:  Solving for Uy, Initial residual = 0.00406952, Final residual = 0.000221914, No Iterations 4
smoothSolver:  Solving for Uz, Initial residual = 0.0204223, Final residual = 0.00108375, No Iterations 4
GAMG:  Solving for p, Initial residual = 0.024091, Final residual = 0.00205314, No Iterations 2
time step continuity errors : sum local = 0.000218236, global = 1.01613e-06, cumulative = 0.000141291
smoothSolver:  Solving for nuTilda, Initial residual = 0.000473906, Final residual = 2.55226e-05, No Iterations 4
ExecutionTime = 477.62 s  ClockTime = 490 s

forceCoeffs canard_1 write:
    Cm    = -0.119646
    Cd    = 0.0956844
    Cl    = 0.828708
    Cl(f) = 0.294707
    Cl(r) = 0.534

forceCoeffs canard_2 write:
    Cm    = 0.0990798
    Cd    = 0.0956844
    Cl    = 0.828708
    Cl(f) = 0.513434
    Cl(r) = 0.315274

forceCoeffs canard_3 write:
    Cm    = 0.317806
    Cd    = 0.0956844
    Cl    = 0.828708
    Cl(f) = 0.73216
    Cl(r) = 0.0965478

forceCoeffs canard_4 write:
    Cm    = 0.536532
    Cd    = 0.0956844
    Cl    = 0.828708
    Cl(f) = 0.950886
    Cl(r) = -0.122178

forceCoeffs canard_5 write:
    Cm    = 0.755258
    Cd    = 0.0956844
    Cl    = 0.828708
    Cl(f) = 1.16961
    Cl(r) = -0.340905

forceCoeffs canard_6 write:
    Cm    = 0.973985
    Cd    = 0.0956844
    Cl    = 0.828708
    Cl(f) = 1.38834
    Cl(r) = -0.559631

forceCoeffs canard_7 write:
    Cm    = 1.19271
    Cd    = 0.0956844
    Cl    = 0.828708
    Cl(f) = 1.60706
    Cl(r) = -0.778357

forceCoeffs canard_8 write:
    Cm    = 1.41144
    Cd    = 0.0956844
    Cl    = 0.828708
    Cl(f) = 1.82579
    Cl(r) = -0.997083

forceCoeffs canard_9 write:
    Cm    = 1.63016
    Cd    = 0.0956844
    Cl    = 0.828708
    Cl(f) = 2.04452
    Cl(r) = -1.21581

forceCoeffs canard_10 write:
    Cm    = 1.84889
    Cd    = 0.0956844
    Cl    = 0.828708
    Cl(f) = 2.26324
    Cl(r) = -1.43454

forceCoeffs canard_11 write:
    Cm    = 2.06762
    Cd    = 0.0956844
    Cl    = 0.828708
    Cl(f) = 2.48197
    Cl(r) = -1.65326

Time = 32s

smoothSolver:  Solving for Ux, Initial residual = 0.00319426, Final residual = 0.000160089, No Iterations 4
smoothSolver:  Solving for Uy, Initial residual = 0.00392732, Final residual = 0.000214288, No Iterations 4
smoothSolver:  Solving for Uz, Initial residual = 0.0196436, Final residual = 0.00101804, No Iterations 4
GAMG:  Solving for p, Initial residual = 0.0218182, Final residual = 0.00203207, No Iterations 2
time step continuity errors : sum local = 0.000220975, global = 1.17609e-05, cumulative = 0.000153052
smoothSolver:  Solving for nuTilda, Initial residual = 0.000472136, Final residual = 2.56812e-05, No Iterations 4
ExecutionTime = 488.52 s  ClockTime = 501 s

forceCoeffs canard_1 write:
    Cm    = -0.118409
    Cd    = 0.094667
    Cl    = 0.839349
    Cl(f) = 0.301265
    Cl(r) = 0.538083

forceCoeffs canard_2 write:
    Cm    = 0.103074
    Cd    = 0.094667
    Cl    = 0.839349
    Cl(f) = 0.522749
    Cl(r) = 0.3166

forceCoeffs canard_3 write:
    Cm    = 0.324558
    Cd    = 0.094667
    Cl    = 0.839349
    Cl(f) = 0.744232
    Cl(r) = 0.0951165

forceCoeffs canard_4 write:
    Cm    = 0.546041
    Cd    = 0.094667
    Cl    = 0.839349
    Cl(f) = 0.965716
    Cl(r) = -0.126367

forceCoeffs canard_5 write:
    Cm    = 0.767525
    Cd    = 0.094667
    Cl    = 0.839349
    Cl(f) = 1.1872
    Cl(r) = -0.34785

forceCoeffs canard_6 write:
    Cm    = 0.989008
    Cd    = 0.094667
    Cl    = 0.839349
    Cl(f) = 1.40868
    Cl(r) = -0.569334

forceCoeffs canard_7 write:
    Cm    = 1.21049
    Cd    = 0.094667
    Cl    = 0.839349
    Cl(f) = 1.63017
    Cl(r) = -0.790817

forceCoeffs canard_8 write:
    Cm    = 1.43198
    Cd    = 0.094667
    Cl    = 0.839349
    Cl(f) = 1.85165
    Cl(r) = -1.0123

forceCoeffs canard_9 write:
    Cm    = 1.65346
    Cd    = 0.094667
    Cl    = 0.839349
    Cl(f) = 2.07313
    Cl(r) = -1.23378

forceCoeffs canard_10 write:
    Cm    = 1.87494
    Cd    = 0.094667
    Cl    = 0.839349
    Cl(f) = 2.29462
    Cl(r) = -1.45527

forceCoeffs canard_11 write:
    Cm    = 2.09643
    Cd    = 0.094667
    Cl    = 0.839349
    Cl(f) = 2.5161
    Cl(r) = -1.67675

Time = 33s

smoothSolver:  Solving for Ux, Initial residual = 0.00340894, Final residual = 0.000157558, No Iterations 4
smoothSolver:  Solving for Uy, Initial residual = 0.00385906, Final residual = 0.000211129, No Iterations 4
smoothSolver:  Solving for Uz, Initial residual = 0.0190598, Final residual = 0.000958837, No Iterations 4
GAMG:  Solving for p, Initial residual = 0.0206733, Final residual = 0.00184941, No Iterations 2
time step continuity errors : sum local = 0.000200924, global = 7.16975e-07, cumulative = 0.000153769
smoothSolver:  Solving for nuTilda, Initial residual = 0.000471177, Final residual = 2.58573e-05, No Iterations 4
ExecutionTime = 499.226 s  ClockTime = 512 s

forceCoeffs canard_1 write:
    Cm    = -0.114199
    Cd    = 0.0901329
    Cl    = 0.843013
    Cl(f) = 0.307308
    Cl(r) = 0.535705

forceCoeffs canard_2 write:
    Cm    = 0.108138
    Cd    = 0.0901329
    Cl    = 0.843013
    Cl(f) = 0.529645
    Cl(r) = 0.313368

forceCoeffs canard_3 write:
    Cm    = 0.330476
    Cd    = 0.0901329
    Cl    = 0.843013
    Cl(f) = 0.751982
    Cl(r) = 0.091031

forceCoeffs canard_4 write:
    Cm    = 0.552813
    Cd    = 0.0901329
    Cl    = 0.843013
    Cl(f) = 0.974319
    Cl(r) = -0.131306

forceCoeffs canard_5 write:
    Cm    = 0.77515
    Cd    = 0.0901329
    Cl    = 0.843013
    Cl(f) = 1.19666
    Cl(r) = -0.353644

forceCoeffs canard_6 write:
    Cm    = 0.997487
    Cd    = 0.0901329
    Cl    = 0.843013
    Cl(f) = 1.41899
    Cl(r) = -0.575981

forceCoeffs canard_7 write:
    Cm    = 1.21982
    Cd    = 0.0901329
    Cl    = 0.843013
    Cl(f) = 1.64133
    Cl(r) = -0.798318

forceCoeffs canard_8 write:
    Cm    = 1.44216
    Cd    = 0.0901329
    Cl    = 0.843013
    Cl(f) = 1.86367
    Cl(r) = -1.02066

forceCoeffs canard_9 write:
    Cm    = 1.6645
    Cd    = 0.0901329
    Cl    = 0.843013
    Cl(f) = 2.08601
    Cl(r) = -1.24299

forceCoeffs canard_10 write:
    Cm    = 1.88684
    Cd    = 0.0901329
    Cl    = 0.843013
    Cl(f) = 2.30834
    Cl(r) = -1.46533

forceCoeffs canard_11 write:
    Cm    = 2.10917
    Cd    = 0.0901329
    Cl    = 0.843013
    Cl(f) = 2.53068
    Cl(r) = -1.68767

Time = 34s

smoothSolver:  Solving for Ux, Initial residual = 0.00339566, Final residual = 0.000156348, No Iterations 4
smoothSolver:  Solving for Uy, Initial residual = 0.00387242, Final residual = 0.00021187, No Iterations 4
smoothSolver:  Solving for Uz, Initial residual = 0.0190222, Final residual = 0.000959693, No Iterations 4
GAMG:  Solving for p, Initial residual = 0.0208756, Final residual = 0.00166264, No Iterations 2
time step continuity errors : sum local = 0.000176651, global = -1.42723e-05, cumulative = 0.000139497
smoothSolver:  Solving for nuTilda, Initial residual = 0.00047267, Final residual = 2.6006e-05, No Iterations 4
ExecutionTime = 510.186 s  ClockTime = 524 s

forceCoeffs canard_1 write:
    Cm    = -0.110394
    Cd    = 0.085388
    Cl    = 0.840593
    Cl(f) = 0.309903
    Cl(r) = 0.53069

forceCoeffs canard_2 write:
    Cm    = 0.111203
    Cd    = 0.085388
    Cl    = 0.840593
    Cl(f) = 0.531499
    Cl(r) = 0.309094

forceCoeffs canard_3 write:
    Cm    = 0.332799
    Cd    = 0.085388
    Cl    = 0.840593
    Cl(f) = 0.753095
    Cl(r) = 0.0874976

forceCoeffs canard_4 write:
    Cm    = 0.554395
    Cd    = 0.085388
    Cl    = 0.840593
    Cl(f) = 0.974692
    Cl(r) = -0.134099

forceCoeffs canard_5 write:
    Cm    = 0.775992
    Cd    = 0.085388
    Cl    = 0.840593
    Cl(f) = 1.19629
    Cl(r) = -0.355695

forceCoeffs canard_6 write:
    Cm    = 0.997588
    Cd    = 0.085388
    Cl    = 0.840593
    Cl(f) = 1.41788
    Cl(r) = -0.577292

forceCoeffs canard_7 write:
    Cm    = 1.21918
    Cd    = 0.085388
    Cl    = 0.840593
    Cl(f) = 1.63948
    Cl(r) = -0.798888

forceCoeffs canard_8 write:
    Cm    = 1.44078
    Cd    = 0.085388
    Cl    = 0.840593
    Cl(f) = 1.86108
    Cl(r) = -1.02048

forceCoeffs canard_9 write:
    Cm    = 1.66238
    Cd    = 0.085388
    Cl    = 0.840593
    Cl(f) = 2.08267
    Cl(r) = -1.24208

forceCoeffs canard_10 write:
    Cm    = 1.88397
    Cd    = 0.085388
    Cl    = 0.840593
    Cl(f) = 2.30427
    Cl(r) = -1.46368

forceCoeffs canard_11 write:
    Cm    = 2.10557
    Cd    = 0.085388
    Cl    = 0.840593
    Cl(f) = 2.52587
    Cl(r) = -1.68527

Time = 35s

smoothSolver:  Solving for Ux, Initial residual = 0.0030954, Final residual = 0.000154052, No Iterations 4
smoothSolver:  Solving for Uy, Initial residual = 0.00384671, Final residual = 0.000210425, No Iterations 4
smoothSolver:  Solving for Uz, Initial residual = 0.0185511, Final residual = 0.000947912, No Iterations 4
GAMG:  Solving for p, Initial residual = 0.020668, Final residual = 0.00162663, No Iterations 2
time step continuity errors : sum local = 0.000168463, global = -4.65955e-06, cumulative = 0.000134837
[...]
    Cm    = 1.83651
    Cd    = 0.0866994
    Cl    = 1.06611
    Cl(f) = 2.36957
    Cl(r) = -1.30345

forceCoeffs canard_9 write:
    Cm    = 2.11706
    Cd    = 0.0866994
    Cl    = 1.06611
    Cl(f) = 2.65012
    Cl(r) = -1.58401

forceCoeffs canard_10 write:
    Cm    = 2.39762
    Cd    = 0.0866994
    Cl    = 1.06611
    Cl(f) = 2.93067
    Cl(r) = -1.86456

forceCoeffs canard_11 write:
    Cm    = 2.67817
    Cd    = 0.0866994
    Cl    = 1.06611
    Cl(f) = 3.21123
    Cl(r) = -2.14511

Time = 492s

smoothSolver:  Solving for Ux, Initial residual = 5.16866e-05, Final residual = 4.36574e-07, No Iterations 4
smoothSolver:  Solving for Uy, Initial residual = 6.71179e-06, Final residual = 1.99076e-07, No Iterations 4
smoothSolver:  Solving for Uz, Initial residual = 2.37083e-05, Final residual = 9.89574e-07, No Iterations 4
GAMG:  Solving for p, Initial residual = 0.000219155, Final residual = 2.08912e-05, No Iterations 2
time step continuity errors : sum local = 2.74329e-06, global = -2.00955e-07, cumulative = -1.78605e-05
smoothSolver:  Solving for nuTilda, Initial residual = 4.20303e-07, Final residual = 3.88896e-08, No Iterations 2
ExecutionTime = 5301.02 s  ClockTime = 5356 s

forceCoeffs canard_1 write:
    Cm    = -0.127366
    Cd    = 0.0866993
    Cl    = 1.06611
    Cl(f) = 0.405691
    Cl(r) = 0.660423

forceCoeffs canard_2 write:
    Cm    = 0.153189
    Cd    = 0.0866993
    Cl    = 1.06611
    Cl(f) = 0.686246
    Cl(r) = 0.379868

forceCoeffs canard_3 write:
    Cm    = 0.433743
    Cd    = 0.0866993
    Cl    = 1.06611
    Cl(f) = 0.9668
    Cl(r) = 0.099314

forceCoeffs canard_4 write:
    Cm    = 0.714297
    Cd    = 0.0866993
    Cl    = 1.06611
    Cl(f) = 1.24735
    Cl(r) = -0.18124

forceCoeffs canard_5 write:
    Cm    = 0.994852
    Cd    = 0.0866993
    Cl    = 1.06611
    Cl(f) = 1.52791
    Cl(r) = -0.461795

forceCoeffs canard_6 write:
    Cm    = 1.27541
    Cd    = 0.0866993
    Cl    = 1.06611
    Cl(f) = 1.80846
    Cl(r) = -0.742349

forceCoeffs canard_7 write:
    Cm    = 1.55596
    Cd    = 0.0866993
    Cl    = 1.06611
    Cl(f) = 2.08902
    Cl(r) = -1.0229

forceCoeffs canard_8 write:
    Cm    = 1.83651
    Cd    = 0.0866993
    Cl    = 1.06611
    Cl(f) = 2.36957
    Cl(r) = -1.30346

forceCoeffs canard_9 write:
    Cm    = 2.11707
    Cd    = 0.0866993
    Cl    = 1.06611
    Cl(f) = 2.65013
    Cl(r) = -1.58401

forceCoeffs canard_10 write:
    Cm    = 2.39762
    Cd    = 0.0866993
    Cl    = 1.06611
    Cl(f) = 2.93068
    Cl(r) = -1.86457

forceCoeffs canard_11 write:
    Cm    = 2.67818
    Cd    = 0.0866993
    Cl    = 1.06611
    Cl(f) = 3.21123
    Cl(r) = -2.14512

Time = 493s

smoothSolver:  Solving for Ux, Initial residual = 4.82428e-05, Final residual = 4.8533e-07, No Iterations 4
smoothSolver:  Solving for Uy, Initial residual = 5.75157e-06, Final residual = 1.63445e-07, No Iterations 4
smoothSolver:  Solving for Uz, Initial residual = 2.2296e-05, Final residual = 8.41075e-07, No Iterations 4
GAMG:  Solving for p, Initial residual = 0.000226211, Final residual = 1.06549e-05, No Iterations 3
time step continuity errors : sum local = 1.39976e-06, global = 8.70416e-08, cumulative = -1.77734e-05
smoothSolver:  Solving for nuTilda, Initial residual = 4.3537e-07, Final residual = 5.20754e-09, No Iterations 4
ExecutionTime = 5310.98 s  ClockTime = 5366 s

forceCoeffs canard_1 write:
    Cm    = -0.127363
    Cd    = 0.0866982
    Cl    = 1.0661
    Cl(f) = 0.405689
    Cl(r) = 0.660415

forceCoeffs canard_2 write:
    Cm    = 0.153189
    Cd    = 0.0866982
    Cl    = 1.0661
    Cl(f) = 0.686241
    Cl(r) = 0.379863

forceCoeffs canard_3 write:
    Cm    = 0.433741
    Cd    = 0.0866982
    Cl    = 1.0661
    Cl(f) = 0.966793
    Cl(r) = 0.0993113

forceCoeffs canard_4 write:
    Cm    = 0.714293
    Cd    = 0.0866982
    Cl    = 1.0661
    Cl(f) = 1.24734
    Cl(r) = -0.18124

forceCoeffs canard_5 write:
    Cm    = 0.994845
    Cd    = 0.0866982
    Cl    = 1.0661
    Cl(f) = 1.5279
    Cl(r) = -0.461792

forceCoeffs canard_6 write:
    Cm    = 1.2754
    Cd    = 0.0866982
    Cl    = 1.0661
    Cl(f) = 1.80845
    Cl(r) = -0.742344

forceCoeffs canard_7 write:
    Cm    = 1.55595
    Cd    = 0.0866982
    Cl    = 1.0661
    Cl(f) = 2.089
    Cl(r) = -1.0229

forceCoeffs canard_8 write:
    Cm    = 1.8365
    Cd    = 0.0866982
    Cl    = 1.0661
    Cl(f) = 2.36955
    Cl(r) = -1.30345

forceCoeffs canard_9 write:
    Cm    = 2.11705
    Cd    = 0.0866982
    Cl    = 1.0661
    Cl(f) = 2.6501
    Cl(r) = -1.584

forceCoeffs canard_10 write:
    Cm    = 2.3976
    Cd    = 0.0866982
    Cl    = 1.0661
    Cl(f) = 2.93066
    Cl(r) = -1.86455

forceCoeffs canard_11 write:
    Cm    = 2.67816
    Cd    = 0.0866982
    Cl    = 1.0661
    Cl(f) = 3.21121
    Cl(r) = -2.1451

Time = 494s

smoothSolver:  Solving for Ux, Initial residual = 3.58606e-05, Final residual = 6.13789e-07, No Iterations 4
smoothSolver:  Solving for Uy, Initial residual = 5.03095e-06, Final residual = 1.79083e-07, No Iterations 4
smoothSolver:  Solving for Uz, Initial residual = 2.309e-05, Final residual = 8.41475e-07, No Iterations 4
GAMG:  Solving for p, Initial residual = 0.000192251, Final residual = 1.05236e-05, No Iterations 3
time step continuity errors : sum local = 1.38287e-06, global = -1.26865e-07, cumulative = -1.79003e-05
smoothSolver:  Solving for nuTilda, Initial residual = 4.3466e-07, Final residual = 4.33115e-08, No Iterations 2
ExecutionTime = 5320.47 s  ClockTime = 5376 s

forceCoeffs canard_1 write:
    Cm    = -0.127358
    Cd    = 0.0866963
    Cl    = 1.0661
    Cl(f) = 0.405692
    Cl(r) = 0.660407

forceCoeffs canard_2 write:
    Cm    = 0.153193
    Cd    = 0.0866963
    Cl    = 1.0661
    Cl(f) = 0.686242
    Cl(r) = 0.379857

forceCoeffs canard_3 write:
    Cm    = 0.433743
    Cd    = 0.0866963
    Cl    = 1.0661
    Cl(f) = 0.966792
    Cl(r) = 0.0993066

forceCoeffs canard_4 write:
    Cm    = 0.714293
    Cd    = 0.0866963
    Cl    = 1.0661
    Cl(f) = 1.24734
    Cl(r) = -0.181244

forceCoeffs canard_5 write:
    Cm    = 0.994844
    Cd    = 0.0866963
    Cl    = 1.0661
    Cl(f) = 1.52789
    Cl(r) = -0.461794

forceCoeffs canard_6 write:
    Cm    = 1.27539
    Cd    = 0.0866963
    Cl    = 1.0661
    Cl(f) = 1.80844
    Cl(r) = -0.742345

forceCoeffs canard_7 write:
    Cm    = 1.55594
    Cd    = 0.0866963
    Cl    = 1.0661
    Cl(f) = 2.08899
    Cl(r) = -1.02289

forceCoeffs canard_8 write:
    Cm    = 1.83649
    Cd    = 0.0866963
    Cl    = 1.0661
    Cl(f) = 2.36954
    Cl(r) = -1.30345

forceCoeffs canard_9 write:
    Cm    = 2.11705
    Cd    = 0.0866963
    Cl    = 1.0661
    Cl(f) = 2.65009
    Cl(r) = -1.584

forceCoeffs canard_10 write:
    Cm    = 2.3976
    Cd    = 0.0866963
    Cl    = 1.0661
    Cl(f) = 2.93065
    Cl(r) = -1.86455

forceCoeffs canard_11 write:
    Cm    = 2.67815
    Cd    = 0.0866963
    Cl    = 1.0661
    Cl(f) = 3.2112
    Cl(r) = -2.1451

Time = 495s

smoothSolver:  Solving for Ux, Initial residual = 4.98949e-05, Final residual = 8.03933e-07, No Iterations 4
smoothSolver:  Solving for Uy, Initial residual = 6.10188e-06, Final residual = 2.29778e-07, No Iterations 4
smoothSolver:  Solving for Uz, Initial residual = 2.56187e-05, Final residual = 1.12011e-06, No Iterations 4
GAMG:  Solving for p, Initial residual = 0.000179408, Final residual = 1.56505e-05, No Iterations 2
time step continuity errors : sum local = 2.05599e-06, global = -3.11192e-07, cumulative = -1.82115e-05
smoothSolver:  Solving for nuTilda, Initial residual = 3.87191e-07, Final residual = 3.52286e-08, No Iterations 2
ExecutionTime = 5329.33 s  ClockTime = 5385 s

forceCoeffs canard_1 write:
    Cm    = -0.127357
    Cd    = 0.0866951
    Cl    = 1.06609
    Cl(f) = 0.405688
    Cl(r) = 0.660402

forceCoeffs canard_2 write:
    Cm    = 0.153191
    Cd    = 0.0866951
    Cl    = 1.06609
    Cl(f) = 0.686236
    Cl(r) = 0.379854

forceCoeffs canard_3 write:
    Cm    = 0.433739
    Cd    = 0.0866951
    Cl    = 1.06609
    Cl(f) = 0.966784
    Cl(r) = 0.099306

forceCoeffs canard_4 write:
    Cm    = 0.714287
    Cd    = 0.0866951
    Cl    = 1.06609
    Cl(f) = 1.24733
    Cl(r) = -0.181242

forceCoeffs canard_5 write:
    Cm    = 0.994835
    Cd    = 0.0866951
    Cl    = 1.06609
    Cl(f) = 1.52788
    Cl(r) = -0.46179

forceCoeffs canard_6 write:
    Cm    = 1.27538
    Cd    = 0.0866951
    Cl    = 1.06609
    Cl(f) = 1.80843
    Cl(r) = -0.742338

forceCoeffs canard_7 write:
    Cm    = 1.55593
    Cd    = 0.0866951
    Cl    = 1.06609
    Cl(f) = 2.08898
    Cl(r) = -1.02289

forceCoeffs canard_8 write:
    Cm    = 1.83648
    Cd    = 0.0866951
    Cl    = 1.06609
    Cl(f) = 2.36952
    Cl(r) = -1.30343

forceCoeffs canard_9 write:
    Cm    = 2.11703
    Cd    = 0.0866951
    Cl    = 1.06609
    Cl(f) = 2.65007
    Cl(r) = -1.58398

forceCoeffs canard_10 write:
    Cm    = 2.39758
    Cd    = 0.0866951
    Cl    = 1.06609
    Cl(f) = 2.93062
    Cl(r) = -1.86453

forceCoeffs canard_11 write:
    Cm    = 2.67812
    Cd    = 0.0866951
    Cl    = 1.06609
    Cl(f) = 3.21117
    Cl(r) = -2.14508

Time = 496s

smoothSolver:  Solving for Ux, Initial residual = 6.98821e-05, Final residual = 9.72107e-07, No Iterations 4
smoothSolver:  Solving for Uy, Initial residual = 6.72125e-06, Final residual = 2.1365e-07, No Iterations 4
smoothSolver:  Solving for Uz, Initial residual = 2.41256e-05, Final residual = 1.04945e-06, No Iterations 4
GAMG:  Solving for p, Initial residual = 0.000184983, Final residual = 1.26557e-05, No Iterations 3
time step continuity errors : sum local = 1.66164e-06, global = -2.21726e-07, cumulative = -1.84332e-05
smoothSolver:  Solving for nuTilda, Initial residual = 4.19666e-07, Final residual = 3.64082e-08, No Iterations 2
ExecutionTime = 5338.76 s  ClockTime = 5394 s

forceCoeffs canard_1 write:
    Cm    = -0.127356
    Cd    = 0.086695
    Cl    = 1.06609
    Cl(f) = 0.405687
    Cl(r) = 0.660399

forceCoeffs canard_2 write:
    Cm    = 0.153191
    Cd    = 0.086695
    Cl    = 1.06609
    Cl(f) = 0.686234
    Cl(r) = 0.379852

forceCoeffs canard_3 write:
    Cm    = 0.433738
    Cd    = 0.086695
    Cl    = 1.06609
    Cl(f) = 0.966781
    Cl(r) = 0.099305

forceCoeffs canard_4 write:
    Cm    = 0.714285
    Cd    = 0.086695
    Cl    = 1.06609
    Cl(f) = 1.24733
    Cl(r) = -0.181242

forceCoeffs canard_5 write:
    Cm    = 0.994832
    Cd    = 0.086695
    Cl    = 1.06609
    Cl(f) = 1.52788
    Cl(r) = -0.461789

forceCoeffs canard_6 write:
    Cm    = 1.27538
    Cd    = 0.086695
    Cl    = 1.06609
    Cl(f) = 1.80842
    Cl(r) = -0.742336

forceCoeffs canard_7 write:
    Cm    = 1.55593
    Cd    = 0.086695
    Cl    = 1.06609
    Cl(f) = 2.08897
    Cl(r) = -1.02288

forceCoeffs canard_8 write:
    Cm    = 1.83647
    Cd    = 0.086695
    Cl    = 1.06609
    Cl(f) = 2.36952
    Cl(r) = -1.30343

forceCoeffs canard_9 write:
    Cm    = 2.11702
    Cd    = 0.086695
    Cl    = 1.06609
    Cl(f) = 2.65006
    Cl(r) = -1.58398

forceCoeffs canard_10 write:
    Cm    = 2.39757
    Cd    = 0.086695
    Cl    = 1.06609
    Cl(f) = 2.93061
    Cl(r) = -1.86452

forceCoeffs canard_11 write:
    Cm    = 2.67811
    Cd    = 0.086695
    Cl    = 1.06609
    Cl(f) = 3.21116
    Cl(r) = -2.14507

Time = 497s

smoothSolver:  Solving for Ux, Initial residual = 7.2463e-05, Final residual = 1.07604e-06, No Iterations 4
smoothSolver:  Solving for Uy, Initial residual = 5.95158e-06, Final residual = 1.39458e-07, No Iterations 4
smoothSolver:  Solving for Uz, Initial residual = 1.87624e-05, Final residual = 6.67123e-07, No Iterations 4
GAMG:  Solving for p, Initial residual = 0.000206217, Final residual = 1.89651e-05, No Iterations 2
time step continuity errors : sum local = 2.48835e-06, global = -1.37967e-07, cumulative = -1.85712e-05
smoothSolver:  Solving for nuTilda, Initial residual = 4.9217e-07, Final residual = 4.77816e-08, No Iterations 2
ExecutionTime = 5347.4 s  ClockTime = 5403 s

forceCoeffs canard_1 write:
    Cm    = -0.12736
    Cd    = 0.0866953
    Cl    = 1.06608
    Cl(f) = 0.405681
    Cl(r) = 0.660402

forceCoeffs canard_2 write:
    Cm    = 0.153186
    Cd    = 0.0866953
    Cl    = 1.06608
    Cl(f) = 0.686227
    Cl(r) = 0.379856

forceCoeffs canard_3 write:
    Cm    = 0.433732
    Cd    = 0.0866953
    Cl    = 1.06608
    Cl(f) = 0.966773
    Cl(r) = 0.0993096

forceCoeffs canard_4 write:
    Cm    = 0.714278
    Cd    = 0.0866953
    Cl    = 1.06608
    Cl(f) = 1.24732
    Cl(r) = -0.181236

forceCoeffs canard_5 write:
    Cm    = 0.994824
    Cd    = 0.0866953
    Cl    = 1.06608
    Cl(f) = 1.52786
    Cl(r) = -0.461782

forceCoeffs canard_6 write:
    Cm    = 1.27537
    Cd    = 0.0866953
    Cl    = 1.06608
    Cl(f) = 1.80841
    Cl(r) = -0.742328

forceCoeffs canard_7 write:
    Cm    = 1.55592
    Cd    = 0.0866953
    Cl    = 1.06608
    Cl(f) = 2.08896
    Cl(r) = -1.02287

forceCoeffs canard_8 write:
    Cm    = 1.83646
    Cd    = 0.0866953
    Cl    = 1.06608
    Cl(f) = 2.3695
    Cl(r) = -1.30342

forceCoeffs canard_9 write:
    Cm    = 2.11701
    Cd    = 0.0866953
    Cl    = 1.06608
    Cl(f) = 2.65005
    Cl(r) = -1.58397

forceCoeffs canard_10 write:
    Cm    = 2.39755
    Cd    = 0.0866953
    Cl    = 1.06608
    Cl(f) = 2.93059
    Cl(r) = -1.86451

forceCoeffs canard_11 write:
    Cm    = 2.6781
    Cd    = 0.0866953
    Cl    = 1.06608
    Cl(f) = 3.21114
    Cl(r) = -2.14506

Time = 498s

smoothSolver:  Solving for Ux, Initial residual = 5.21321e-05, Final residual = 9.47712e-07, No Iterations 4
smoothSolver:  Solving for Uy, Initial residual = 5.51828e-06, Final residual = 1.76676e-07, No Iterations 4
smoothSolver:  Solving for Uz, Initial residual = 2.15666e-05, Final residual = 7.63325e-07, No Iterations 4
GAMG:  Solving for p, Initial residual = 0.000237439, Final residual = 1.7104e-05, No Iterations 2
time step continuity errors : sum local = 2.24338e-06, global = -3.70283e-07, cumulative = -1.89415e-05
smoothSolver:  Solving for nuTilda, Initial residual = 5.43739e-07, Final residual = 5.38866e-08, No Iterations 2
ExecutionTime = 5356.03 s  ClockTime = 5411 s

forceCoeffs canard_1 write:
    Cm    = -0.127362
    Cd    = 0.0866968
    Cl    = 1.06609
    Cl(f) = 0.405682
    Cl(r) = 0.660405

forceCoeffs canard_2 write:
    Cm    = 0.153186
    Cd    = 0.0866968
    Cl    = 1.06609
    Cl(f) = 0.68623
    Cl(r) = 0.379858

forceCoeffs canard_3 write:
    Cm    = 0.433733
    Cd    = 0.0866968
    Cl    = 1.06609
    Cl(f) = 0.966777
    Cl(r) = 0.0993106

forceCoeffs canard_4 write:
    Cm    = 0.714281
    Cd    = 0.0866968
    Cl    = 1.06609
    Cl(f) = 1.24732
    Cl(r) = -0.181237

forceCoeffs canard_5 write:
    Cm    = 0.994828
    Cd    = 0.0866968
    Cl    = 1.06609
    Cl(f) = 1.52787
    Cl(r) = -0.461784

forceCoeffs canard_6 write:
    Cm    = 1.27538
    Cd    = 0.0866968
    Cl    = 1.06609
    Cl(f) = 1.80842
    Cl(r) = -0.742332

forceCoeffs canard_7 write:
    Cm    = 1.55592
    Cd    = 0.0866968
    Cl    = 1.06609
    Cl(f) = 2.08897
    Cl(r) = -1.02288

forceCoeffs canard_8 write:
    Cm    = 1.83647
    Cd    = 0.0866968
    Cl    = 1.06609
    Cl(f) = 2.36951
    Cl(r) = -1.30343

forceCoeffs canard_9 write:
    Cm    = 2.11702
    Cd    = 0.0866968
    Cl    = 1.06609
    Cl(f) = 2.65006
    Cl(r) = -1.58397

forceCoeffs canard_10 write:
    Cm    = 2.39756
    Cd    = 0.0866968
    Cl    = 1.06609
    Cl(f) = 2.93061
    Cl(r) = -1.86452

forceCoeffs canard_11 write:
    Cm    = 2.67811
    Cd    = 0.0866968
    Cl    = 1.06609
    Cl(f) = 3.21116
    Cl(r) = -2.14507

Time = 499s

smoothSolver:  Solving for Ux, Initial residual = 3.52192e-05, Final residual = 3.05587e-06, No Iterations 2
smoothSolver:  Solving for Uy, Initial residual = 5.80604e-06, Final residual = 2.21537e-07, No Iterations 4
smoothSolver:  Solving for Uz, Initial residual = 2.43443e-05, Final residual = 1.01243e-06, No Iterations 4
GAMG:  Solving for p, Initial residual = 0.000221071, Final residual = 2.16813e-05, No Iterations 2
time step continuity errors : sum local = 2.84443e-06, global = -3.35891e-07, cumulative = -1.92774e-05
smoothSolver:  Solving for nuTilda, Initial residual = 4.96031e-07, Final residual = 5.11241e-09, No Iterations 4
ExecutionTime = 5364.71 s  ClockTime = 5420 s

forceCoeffs canard_1 write:
    Cm    = -0.127365
    Cd    = 0.086698
    Cl    = 1.06609
    Cl(f) = 0.40568
    Cl(r) = 0.660409

forceCoeffs canard_2 write:
    Cm    = 0.153183
    Cd    = 0.086698
    Cl    = 1.06609
    Cl(f) = 0.686228
    Cl(r) = 0.379861

forceCoeffs canard_3 write:
    Cm    = 0.433731
    Cd    = 0.086698
    Cl    = 1.06609
    Cl(f) = 0.966776
    Cl(r) = 0.0993135

forceCoeffs canard_4 write:
    Cm    = 0.714279
    Cd    = 0.086698
    Cl    = 1.06609
    Cl(f) = 1.24732
    Cl(r) = -0.181234

forceCoeffs canard_5 write:
    Cm    = 0.994827
    Cd    = 0.086698
    Cl    = 1.06609
    Cl(f) = 1.52787
    Cl(r) = -0.461782

forceCoeffs canard_6 write:
    Cm    = 1.27537
    Cd    = 0.086698
    Cl    = 1.06609
    Cl(f) = 1.80842
    Cl(r) = -0.74233

forceCoeffs canard_7 write:
    Cm    = 1.55592
    Cd    = 0.086698
    Cl    = 1.06609
    Cl(f) = 2.08897
    Cl(r) = -1.02288

forceCoeffs canard_8 write:
    Cm    = 1.83647
    Cd    = 0.086698
    Cl    = 1.06609
    Cl(f) = 2.36951
    Cl(r) = -1.30343

forceCoeffs canard_9 write:
    Cm    = 2.11702
    Cd    = 0.086698
    Cl    = 1.06609
    Cl(f) = 2.65006
    Cl(r) = -1.58397

forceCoeffs canard_10 write:
    Cm    = 2.39757
    Cd    = 0.086698
    Cl    = 1.06609
    Cl(f) = 2.93061
    Cl(r) = -1.86452

forceCoeffs canard_11 write:
    Cm    = 2.67811
    Cd    = 0.086698
    Cl    = 1.06609
    Cl(f) = 3.21116
    Cl(r) = -2.14507

Time = 500s

smoothSolver:  Solving for Ux, Initial residual = 4.23713e-05, Final residual = 4.59634e-07, No Iterations 4
smoothSolver:  Solving for Uy, Initial residual = 6.16997e-06, Final residual = 2.05169e-07, No Iterations 4
smoothSolver:  Solving for Uz, Initial residual = 2.30829e-05, Final residual = 9.98843e-07, No Iterations 4
GAMG:  Solving for p, Initial residual = 0.000200934, Final residual = 1.14639e-05, No Iterations 3
time step continuity errors : sum local = 1.50472e-06, global = 3.0574e-07, cumulative = -1.89716e-05
smoothSolver:  Solving for nuTilda, Initial residual = 4.25763e-07, Final residual = 4.20801e-08, No Iterations 2
ExecutionTime = 5379.55 s  ClockTime = 5435 s

forceCoeffs canard_1 write:
    Cm    = -0.127363
    Cd    = 0.0866982
    Cl    = 1.06609
    Cl(f) = 0.405684
    Cl(r) = 0.660411

forceCoeffs canard_2 write:
    Cm    = 0.153186
    Cd    = 0.0866982
    Cl    = 1.06609
    Cl(f) = 0.686233
    Cl(r) = 0.379861

forceCoeffs canard_3 write:
    Cm    = 0.433735
    Cd    = 0.0866982
    Cl    = 1.06609
    Cl(f) = 0.966782
    Cl(r) = 0.0993123

forceCoeffs canard_4 write:
    Cm    = 0.714284
    Cd    = 0.0866982
    Cl    = 1.06609
    Cl(f) = 1.24733
    Cl(r) = -0.181237

forceCoeffs canard_5 write:
    Cm    = 0.994833
    Cd    = 0.0866982
    Cl    = 1.06609
    Cl(f) = 1.52788
    Cl(r) = -0.461786

forceCoeffs canard_6 write:
    Cm    = 1.27538
    Cd    = 0.0866982
    Cl    = 1.06609
    Cl(f) = 1.80843
    Cl(r) = -0.742335

forceCoeffs canard_7 write:
    Cm    = 1.55593
    Cd    = 0.0866982
    Cl    = 1.06609
    Cl(f) = 2.08898
    Cl(r) = -1.02288

forceCoeffs canard_8 write:
    Cm    = 1.83648
    Cd    = 0.0866982
    Cl    = 1.06609
    Cl(f) = 2.36953
    Cl(r) = -1.30343

forceCoeffs canard_9 write:
    Cm    = 2.11703
    Cd    = 0.0866982
    Cl    = 1.06609
    Cl(f) = 2.65008
    Cl(r) = -1.58398

forceCoeffs canard_10 write:
    Cm    = 2.39758
    Cd    = 0.0866982
    Cl    = 1.06609
    Cl(f) = 2.93063
    Cl(r) = -1.86453

forceCoeffs canard_11 write:
    Cm    = 2.67813
    Cd    = 0.0866982
    Cl    = 1.06609
    Cl(f) = 3.21118
    Cl(r) = -2.14508

End

Finalising parallel run
