
simpleFoam has been superseded and replaced by the more general
incompressibleFluid solver module executed by the foamRun application:

    foamRun -solver incompressibleFluid


simpleFoam has been superseded and replaced by the more general
incompressibleFluid solver module executed by the foamRun application:

    foamRun -solver incompressibleFluid


simpleFoam has been superseded and replaced by the more general
incompressibleFluid solver module executed by the foamRun application:

    foamRun -solver incompressibleFluid

/*---------------------------------------------------------------------------*\
  =========                 |
  \\      /  F ield         | OpenFOAM: The Open Source CFD Toolbox
   \\    /   O peration     | Website:  https://openfoam.org
    \\  /    A nd           | Version:  12
     \\/     M anipulation  |
\*---------------------------------------------------------------------------*/
Build  : 12-86e126a7bc4d
Exec   : foamRun -solver incompressibleFluid -parallel
Date   : Jun 24 2025
Time   : 05:08:28
Host   : "EmiAlamilla"
PID    : 98385
I/O    : uncollated
Case   : /home/emilianoalamilla/CFD/Aircraft/AoA_15
nProcs : 3
Slaves : 
2
(
"EmiAlamilla.98387"
"EmiAlamilla.98389"
)

Pstream initialised with:
    floatTransfer      : false
    nProcsSimpleSum    : 0
    commsType          : nonBlocking
    polling iterations : 0
sigFpe : Enabling floating point exception trapping (FOAM_SIGFPE).
fileModificationChecking : Monitoring run-time modified files using timeStampMaster (fileModificationSkew 10)
allowSystemOperations : Allowing user-supplied system call operations

// * * * * * * * * * * * * * * * * * * * * * * * * * * * * * * * * * * * * * //
Create time

Create mesh for time = 0

Selecting solver incompressibleFluid
Selecting viscosity model constant
Selecting turbulence model type RAS
Selecting RAS turbulence model SpalartAllmaras
RAS
{
    RASModel        SpalartAllmaras;
    turbulence      on;
    printCoeffs     on;
    sigmaNut        0.66666;
    kappa           0.41;
    Cb1             0.1355;
    Cb2             0.622;
    Cw2             0.3;
    Cw3             2;
    Cv1             7.1;
    Cs              0.3;
}

No MRF models present


SIMPLE: Convergence criteria found
        p: tolerance 1e-05
        U: tolerance 1e-05
        nuTilda: tolerance 1e-05


SIMPLE: Operating solver in steady-state mode with 1 outer corrector
SIMPLE: Operating solver in SIMPLE mode



Starting time loop

forcesBase canard_1:
    Not including porosity effects
forces canard_1:
    Not including porosity effects
forceCoeffs canard_1:
    Not including porosity effects
forcesBase canard_2:
    Not including porosity effects
forces canard_2:
    Not including porosity effects
forceCoeffs canard_2:
    Not including porosity effects
forcesBase canard_3:
    Not including porosity effects
forces canard_3:
    Not including porosity effects
forceCoeffs canard_3:
    Not including porosity effects
forcesBase canard_4:
    Not including porosity effects
forces canard_4:
    Not including porosity effects
forceCoeffs canard_4:
    Not including porosity effects
forcesBase canard_5:
    Not including porosity effects
forces canard_5:
    Not including porosity effects
forceCoeffs canard_5:
    Not including porosity effects
forcesBase canard_6:
    Not including porosity effects
forces canard_6:
    Not including porosity effects
forceCoeffs canard_6:
    Not including porosity effects
forcesBase canard_7:
    Not including porosity effects
forces canard_7:
    Not including porosity effects
forceCoeffs canard_7:
    Not including porosity effects
forcesBase canard_8:
    Not including porosity effects
forces canard_8:
    Not including porosity effects
forceCoeffs canard_8:
    Not including porosity effects
forcesBase canard_9:
    Not including porosity effects
forces canard_9:
    Not including porosity effects
forceCoeffs canard_9:
    Not including porosity effects
forcesBase canard_10:
    Not including porosity effects
forces canard_10:
    Not including porosity effects
forceCoeffs canard_10:
    Not including porosity effects
forcesBase canard_11:
    Not including porosity effects
forces canard_11:
    Not including porosity effects
forceCoeffs canard_11:
    Not including porosity effects
forceCoeffs canard_1 write:
    Cm    = -0.000453265
    Cd    = 0.00651639
    Cl    = 0.000381025
    Cl(f) = -0.000262753
    Cl(r) = 0.000643777

forceCoeffs canard_2 write:
    Cm    = 8.56483e-05
    Cd    = 0.00651639
    Cl    = 0.000381025
    Cl(f) = 0.000276161
    Cl(r) = 0.000104864

forceCoeffs canard_3 write:
    Cm    = 0.000624562
    Cd    = 0.00651639
    Cl    = 0.000381025
    Cl(f) = 0.000815074
    Cl(r) = -0.000434049

forceCoeffs canard_4 write:
    Cm    = 0.00116348
    Cd    = 0.00651639
    Cl    = 0.000381025
    Cl(f) = 0.00135399
    Cl(r) = -0.000972963

forceCoeffs canard_5 write:
    Cm    = 0.00170239
    Cd    = 0.00651639
    Cl    = 0.000381025
    Cl(f) = 0.0018929
    Cl(r) = -0.00151188

forceCoeffs canard_6 write:
    Cm    = 0.0022413
    Cd    = 0.00651639
    Cl    = 0.000381025
    Cl(f) = 0.00243181
    Cl(r) = -0.00205079

forceCoeffs canard_7 write:
    Cm    = 0.00278022
    Cd    = 0.00651639
    Cl    = 0.000381025
    Cl(f) = 0.00297073
    Cl(r) = -0.0025897

forceCoeffs canard_8 write:
    Cm    = 0.00331913
    Cd    = 0.00651639
    Cl    = 0.000381025
    Cl(f) = 0.00350964
    Cl(r) = -0.00312862

forceCoeffs canard_9 write:
    Cm    = 0.00385804
    Cd    = 0.00651639
    Cl    = 0.000381025
    Cl(f) = 0.00404855
    Cl(r) = -0.00366753

forceCoeffs canard_10 write:
    Cm    = 0.00439696
    Cd    = 0.00651639
    Cl    = 0.000381025
    Cl(f) = 0.00458747
    Cl(r) = -0.00420644

forceCoeffs canard_11 write:
    Cm    = 0.00493587
    Cd    = 0.00651639
    Cl    = 0.000381025
    Cl(f) = 0.00512638
    Cl(r) = -0.00474536

Time = 1s

smoothSolver:  Solving for Ux, Initial residual = 1, Final residual = 0.0454637, No Iterations 4
smoothSolver:  Solving for Uy, Initial residual = 1, Final residual = 0.0240015, No Iterations 4
smoothSolver:  Solving for Uz, Initial residual = 1, Final residual = 0.0231654, No Iterations 4
GAMG:  Solving for p, Initial residual = 1, Final residual = 0.0875185, No Iterations 5
time step continuity errors : sum local = 0.000616073, global = -1.02594e-05, cumulative = -1.02594e-05
Selecting patchDistMethod meshWave
smoothSolver:  Solving for nuTilda, Initial residual = 1, Final residual = 0.0271133, No Iterations 2
ExecutionTime = 21.9945 s  ClockTime = 23 s

forceCoeffs canard_1 write:
    Cm    = -6.9275
    Cd    = 6.48002
    Cl    = 13.5858
    Cl(f) = -0.134625
    Cl(r) = 13.7204

forceCoeffs canard_2 write:
    Cm    = -3.04554
    Cd    = 6.48002
    Cl    = 13.5858
    Cl(f) = 3.74734
    Cl(r) = 9.83842

forceCoeffs canard_3 write:
    Cm    = 0.836423
    Cd    = 6.48002
    Cl    = 13.5858
    Cl(f) = 7.6293
    Cl(r) = 5.95645

forceCoeffs canard_4 write:
    Cm    = 4.71839
    Cd    = 6.48002
    Cl    = 13.5858
    Cl(f) = 11.5113
    Cl(r) = 2.07449

forceCoeffs canard_5 write:
    Cm    = 8.60035
    Cd    = 6.48002
    Cl    = 13.5858
    Cl(f) = 15.3932
    Cl(r) = -1.80747

forceCoeffs canard_6 write:
    Cm    = 12.4823
    Cd    = 6.48002
    Cl    = 13.5858
    Cl(f) = 19.2752
    Cl(r) = -5.68943

forceCoeffs canard_7 write:
    Cm    = 16.3643
    Cd    = 6.48002
    Cl    = 13.5858
    Cl(f) = 23.1572
    Cl(r) = -9.5714

forceCoeffs canard_8 write:
    Cm    = 20.2462
    Cd    = 6.48002
    Cl    = 13.5858
    Cl(f) = 27.0391
    Cl(r) = -13.4534

forceCoeffs canard_9 write:
    Cm    = 24.1282
    Cd    = 6.48002
    Cl    = 13.5858
    Cl(f) = 30.9211
    Cl(r) = -17.3353

forceCoeffs canard_10 write:
    Cm    = 28.0102
    Cd    = 6.48002
    Cl    = 13.5858
    Cl(f) = 34.803
    Cl(r) = -21.2173

forceCoeffs canard_11 write:
    Cm    = 31.8921
    Cd    = 6.48002
    Cl    = 13.5858
    Cl(f) = 38.685
    Cl(r) = -25.0992

Time = 2s

smoothSolver:  Solving for Ux, Initial residual = 0.165823, Final residual = 0.0111413, No Iterations 4
smoothSolver:  Solving for Uy, Initial residual = 0.0820201, Final residual = 0.00586578, No Iterations 4
smoothSolver:  Solving for Uz, Initial residual = 0.625896, Final residual = 0.0420682, No Iterations 4
GAMG:  Solving for p, Initial residual = 0.713268, Final residual = 0.0349122, No Iterations 3
time step continuity errors : sum local = 0.000973132, global = 2.51064e-06, cumulative = -7.74878e-06
smoothSolver:  Solving for nuTilda, Initial residual = 0.0964743, Final residual = 0.0047991, No Iterations 2
ExecutionTime = 31.6372 s  ClockTime = 32 s

forceCoeffs canard_1 write:
    Cm    = -4.54016
    Cd    = 4.19969
    Cl    = 9.37981
    Cl(f) = 0.149748
    Cl(r) = 9.23006

forceCoeffs canard_2 write:
    Cm    = -1.87861
    Cd    = 4.19969
    Cl    = 9.37981
    Cl(f) = 2.8113
    Cl(r) = 6.56851

forceCoeffs canard_3 write:
    Cm    = 0.782944
    Cd    = 4.19969
    Cl    = 9.37981
    Cl(f) = 5.47285
    Cl(r) = 3.90696

forceCoeffs canard_4 write:
    Cm    = 3.44449
    Cd    = 4.19969
    Cl    = 9.37981
    Cl(f) = 8.1344
    Cl(r) = 1.24541

forceCoeffs canard_5 write:
    Cm    = 6.10604
    Cd    = 4.19969
    Cl    = 9.37981
    Cl(f) = 10.7959
    Cl(r) = -1.41614

forceCoeffs canard_6 write:
    Cm    = 8.76759
    Cd    = 4.19969
    Cl    = 9.37981
    Cl(f) = 13.4575
    Cl(r) = -4.07769

forceCoeffs canard_7 write:
    Cm    = 11.4291
    Cd    = 4.19969
    Cl    = 9.37981
    Cl(f) = 16.119
    Cl(r) = -6.73924

forceCoeffs canard_8 write:
    Cm    = 14.0907
    Cd    = 4.19969
    Cl    = 9.37981
    Cl(f) = 18.7806
    Cl(r) = -9.40079

forceCoeffs canard_9 write:
    Cm    = 16.7522
    Cd    = 4.19969
    Cl    = 9.37981
    Cl(f) = 21.4421
    Cl(r) = -12.0623

forceCoeffs canard_10 write:
    Cm    = 19.4138
    Cd    = 4.19969
    Cl    = 9.37981
    Cl(f) = 24.1037
    Cl(r) = -14.7239

forceCoeffs canard_11 write:
    Cm    = 22.0753
    Cd    = 4.19969
    Cl    = 9.37981
    Cl(f) = 26.7652
    Cl(r) = -17.3854

Time = 3s

smoothSolver:  Solving for Ux, Initial residual = 0.0326421, Final residual = 0.00219118, No Iterations 4
smoothSolver:  Solving for Uy, Initial residual = 0.0119671, Final residual = 0.00085248, No Iterations 4
smoothSolver:  Solving for Uz, Initial residual = 0.270108, Final residual = 0.0179117, No Iterations 4
GAMG:  Solving for p, Initial residual = 0.553155, Final residual = 0.0394392, No Iterations 3
time step continuity errors : sum local = 0.0023323, global = 3.91955e-05, cumulative = 3.14468e-05
smoothSolver:  Solving for nuTilda, Initial residual = 0.0532129, Final residual = 0.00290226, No Iterations 2
ExecutionTime = 41.798 s  ClockTime = 43 s

forceCoeffs canard_1 write:
    Cm    = 0.575581
    Cd    = -0.4471
    Cl    = 0.00463325
    Cl(f) = 0.577897
    Cl(r) = -0.573264

forceCoeffs canard_2 write:
    Cm    = 0.546402
    Cd    = -0.4471
    Cl    = 0.00463325
    Cl(f) = 0.548719
    Cl(r) = -0.544086

forceCoeffs canard_3 write:
    Cm    = 0.517224
    Cd    = -0.4471
    Cl    = 0.00463325
    Cl(f) = 0.519541
    Cl(r) = -0.514907

forceCoeffs canard_4 write:
    Cm    = 0.488045
    Cd    = -0.4471
    Cl    = 0.00463325
    Cl(f) = 0.490362
    Cl(r) = -0.485729

forceCoeffs canard_5 write:
    Cm    = 0.458867
    Cd    = -0.4471
    Cl    = 0.00463325
    Cl(f) = 0.461184
    Cl(r) = -0.45655

forceCoeffs canard_6 write:
    Cm    = 0.429689
    Cd    = -0.4471
    Cl    = 0.00463325
    Cl(f) = 0.432005
    Cl(r) = -0.427372

forceCoeffs canard_7 write:
    Cm    = 0.40051
    Cd    = -0.4471
    Cl    = 0.00463325
    Cl(f) = 0.402827
    Cl(r) = -0.398194

forceCoeffs canard_8 write:
    Cm    = 0.371332
    Cd    = -0.4471
    Cl    = 0.00463325
    Cl(f) = 0.373648
    Cl(r) = -0.369015

forceCoeffs canard_9 write:
    Cm    = 0.342153
    Cd    = -0.4471
    Cl    = 0.00463325
    Cl(f) = 0.34447
    Cl(r) = -0.339837

forceCoeffs canard_10 write:
    Cm    = 0.312975
    Cd    = -0.4471
    Cl    = 0.00463325
    Cl(f) = 0.315291
    Cl(r) = -0.310658

forceCoeffs canard_11 write:
    Cm    = 0.283796
    Cd    = -0.4471
    Cl    = 0.00463325
    Cl(f) = 0.286113
    Cl(r) = -0.28148

Time = 4s

smoothSolver:  Solving for Ux, Initial residual = 0.0113537, Final residual = 0.000648805, No Iterations 4
smoothSolver:  Solving for Uy, Initial residual = 0.00345615, Final residual = 0.000210104, No Iterations 4
smoothSolver:  Solving for Uz, Initial residual = 0.110303, Final residual = 0.00643787, No Iterations 4
GAMG:  Solving for p, Initial residual = 0.150381, Final residual = 0.0108366, No Iterations 3
time step continuity errors : sum local = 0.00162327, global = 3.59455e-05, cumulative = 6.73923e-05
smoothSolver:  Solving for nuTilda, Initial residual = 0.0399719, Final residual = 0.00217318, No Iterations 2
bounding nuTilda, min: -0.000519172 max: 0.0652577 average: 0.0181795
ExecutionTime = 52.4529 s  ClockTime = 53 s

forceCoeffs canard_1 write:
    Cm    = 3.0745
    Cd    = -2.73531
    Cl    = -4.92327
    Cl(f) = 0.612869
    Cl(r) = -5.53614

forceCoeffs canard_2 write:
    Cm    = 1.64147
    Cd    = -2.73531
    Cl    = -4.92327
    Cl(f) = -0.82017
    Cl(r) = -4.1031

forceCoeffs canard_3 write:
    Cm    = 0.208425
    Cd    = -2.73531
    Cl    = -4.92327
    Cl(f) = -2.25321
    Cl(r) = -2.67006

forceCoeffs canard_4 write:
    Cm    = -1.22461
    Cd    = -2.73531
    Cl    = -4.92327
    Cl(f) = -3.68625
    Cl(r) = -1.23702

forceCoeffs canard_5 write:
    Cm    = -2.65765
    Cd    = -2.73531
    Cl    = -4.92327
    Cl(f) = -5.11929
    Cl(r) = 0.196019

forceCoeffs canard_6 write:
    Cm    = -4.09069
    Cd    = -2.73531
    Cl    = -4.92327
    Cl(f) = -6.55233
    Cl(r) = 1.62906

forceCoeffs canard_7 write:
    Cm    = -5.52373
    Cd    = -2.73531
    Cl    = -4.92327
    Cl(f) = -7.98537
    Cl(r) = 3.0621

forceCoeffs canard_8 write:
    Cm    = -6.95677
    Cd    = -2.73531
    Cl    = -4.92327
    Cl(f) = -9.41841
    Cl(r) = 4.49514

forceCoeffs canard_9 write:
    Cm    = -8.38981
    Cd    = -2.73531
    Cl    = -4.92327
    Cl(f) = -10.8514
    Cl(r) = 5.92818

forceCoeffs canard_10 write:
    Cm    = -9.82285
    Cd    = -2.73531
    Cl    = -4.92327
    Cl(f) = -12.2845
    Cl(r) = 7.36122

forceCoeffs canard_11 write:
    Cm    = -11.2559
    Cd    = -2.73531
    Cl    = -4.92327
    Cl(f) = -13.7175
    Cl(r) = 8.79426

Time = 5s

smoothSolver:  Solving for Ux, Initial residual = 0.0175118, Final residual = 0.00109925, No Iterations 4
smoothSolver:  Solving for Uy, Initial residual = 0.00750406, Final residual = 0.000515708, No Iterations 4
smoothSolver:  Solving for Uz, Initial residual = 0.14028, Final residual = 0.00905065, No Iterations 4
GAMG:  Solving for p, Initial residual = 0.0915176, Final residual = 0.00540576, No Iterations 3
time step continuity errors : sum local = 0.001245, global = 3.21856e-05, cumulative = 9.95779e-05
smoothSolver:  Solving for nuTilda, Initial residual = 0.0433562, Final residual = 0.00203876, No Iterations 2
bounding nuTilda, min: -0.000673921 max: 0.0652577 average: 0.0175072
ExecutionTime = 62.2272 s  ClockTime = 63 s

forceCoeffs canard_1 write:
    Cm    = 1.83793
    Cd    = -1.68293
    Cl    = -3.05603
    Cl(f) = 0.309913
    Cl(r) = -3.36594

forceCoeffs canard_2 write:
    Cm    = 0.949409
    Cd    = -1.68293
    Cl    = -3.05603
    Cl(f) = -0.578604
    Cl(r) = -2.47742

forceCoeffs canard_3 write:
    Cm    = 0.0608927
    Cd    = -1.68293
    Cl    = -3.05603
    Cl(f) = -1.46712
    Cl(r) = -1.58891

forceCoeffs canard_4 write:
    Cm    = -0.827624
    Cd    = -1.68293
    Cl    = -3.05603
    Cl(f) = -2.35564
    Cl(r) = -0.700389

forceCoeffs canard_5 write:
    Cm    = -1.71614
    Cd    = -1.68293
    Cl    = -3.05603
    Cl(f) = -3.24415
    Cl(r) = 0.188127

forceCoeffs canard_6 write:
    Cm    = -2.60466
    Cd    = -1.68293
    Cl    = -3.05603
    Cl(f) = -4.13267
    Cl(r) = 1.07664

forceCoeffs canard_7 write:
    Cm    = -3.49317
    Cd    = -1.68293
    Cl    = -3.05603
    Cl(f) = -5.02119
    Cl(r) = 1.96516

forceCoeffs canard_8 write:
    Cm    = -4.38169
    Cd    = -1.68293
    Cl    = -3.05603
    Cl(f) = -5.9097
    Cl(r) = 2.85368

forceCoeffs canard_9 write:
    Cm    = -5.27021
    Cd    = -1.68293
    Cl    = -3.05603
    Cl(f) = -6.79822
    Cl(r) = 3.74219

forceCoeffs canard_10 write:
    Cm    = -6.15872
    Cd    = -1.68293
    Cl    = -3.05603
    Cl(f) = -7.68674
    Cl(r) = 4.63071

forceCoeffs canard_11 write:
    Cm    = -7.04724
    Cd    = -1.68293
    Cl    = -3.05603
    Cl(f) = -8.57526
    Cl(r) = 5.51923

Time = 6s

smoothSolver:  Solving for Ux, Initial residual = 0.0319888, Final residual = 0.00203864, No Iterations 4
smoothSolver:  Solving for Uy, Initial residual = 0.0142065, Final residual = 0.000972099, No Iterations 4
smoothSolver:  Solving for Uz, Initial residual = 0.176297, Final residual = 0.0116282, No Iterations 4
GAMG:  Solving for p, Initial residual = 0.128116, Final residual = 0.00688537, No Iterations 3
time step continuity errors : sum local = 0.00138036, global = -1.0144e-05, cumulative = 8.9434e-05
smoothSolver:  Solving for nuTilda, Initial residual = 0.0385897, Final residual = 0.00174521, No Iterations 2
ExecutionTime = 71.8902 s  ClockTime = 73 s

forceCoeffs canard_1 write:
    Cm    = -0.715146
    Cd    = 0.550528
    Cl    = 1.36291
    Cl(f) = -0.033693
    Cl(r) = 1.3966

forceCoeffs canard_2 write:
    Cm    = -0.33247
    Cd    = 0.550528
    Cl    = 1.36291
    Cl(f) = 0.348983
    Cl(r) = 1.01392

forceCoeffs canard_3 write:
    Cm    = 0.0502066
    Cd    = 0.550528
    Cl    = 1.36291
    Cl(f) = 0.731659
    Cl(r) = 0.631246

forceCoeffs canard_4 write:
    Cm    = 0.432883
    Cd    = 0.550528
    Cl    = 1.36291
    Cl(f) = 1.11434
    Cl(r) = 0.24857

forceCoeffs canard_5 write:
    Cm    = 0.815559
    Cd    = 0.550528
    Cl    = 1.36291
    Cl(f) = 1.49701
    Cl(r) = -0.134106

forceCoeffs canard_6 write:
    Cm    = 1.19824
    Cd    = 0.550528
    Cl    = 1.36291
    Cl(f) = 1.87969
    Cl(r) = -0.516782

forceCoeffs canard_7 write:
    Cm    = 1.58091
    Cd    = 0.550528
    Cl    = 1.36291
    Cl(f) = 2.26236
    Cl(r) = -0.899459

forceCoeffs canard_8 write:
    Cm    = 1.96359
    Cd    = 0.550528
    Cl    = 1.36291
    Cl(f) = 2.64504
    Cl(r) = -1.28213

forceCoeffs canard_9 write:
    Cm    = 2.34626
    Cd    = 0.550528
    Cl    = 1.36291
    Cl(f) = 3.02772
    Cl(r) = -1.66481

forceCoeffs canard_10 write:
    Cm    = 2.72894
    Cd    = 0.550528
    Cl    = 1.36291
    Cl(f) = 3.41039
    Cl(r) = -2.04749

forceCoeffs canard_11 write:
    Cm    = 3.11162
    Cd    = 0.550528
    Cl    = 1.36291
    Cl(f) = 3.79307
    Cl(r) = -2.43016

Time = 7s

smoothSolver:  Solving for Ux, Initial residual = 0.0300104, Final residual = 0.00161276, No Iterations 4
smoothSolver:  Solving for Uy, Initial residual = 0.0185209, Final residual = 0.00113297, No Iterations 4
smoothSolver:  Solving for Uz, Initial residual = 0.146646, Final residual = 0.00868909, No Iterations 4
GAMG:  Solving for p, Initial residual = 0.231635, Final residual = 0.013113, No Iterations 3
time step continuity errors : sum local = 0.000993091, global = -9.05528e-06, cumulative = 8.03787e-05
smoothSolver:  Solving for nuTilda, Initial residual = 0.0367602, Final residual = 0.00154078, No Iterations 2
bounding nuTilda, min: -0.00013711 max: 0.0652577 average: 0.0165761
ExecutionTime = 82.6763 s  ClockTime = 84 s

forceCoeffs canard_1 write:
    Cm    = -2.02711
    Cd    = 1.73603
    Cl    = 3.94995
    Cl(f) = -0.0521329
    Cl(r) = 4.00209

forceCoeffs canard_2 write:
    Cm    = -0.908505
    Cd    = 1.73603
    Cl    = 3.94995
    Cl(f) = 1.06647
    Cl(r) = 2.88348

forceCoeffs canard_3 write:
    Cm    = 0.210099
    Cd    = 1.73603
    Cl    = 3.94995
    Cl(f) = 2.18508
    Cl(r) = 1.76488

forceCoeffs canard_4 write:
    Cm    = 1.3287
    Cd    = 1.73603
    Cl    = 3.94995
    Cl(f) = 3.30368
    Cl(r) = 0.646273

forceCoeffs canard_5 write:
    Cm    = 2.44731
    Cd    = 1.73603
    Cl    = 3.94995
    Cl(f) = 4.42228
    Cl(r) = -0.472331

forceCoeffs canard_6 write:
    Cm    = 3.56591
    Cd    = 1.73603
    Cl    = 3.94995
    Cl(f) = 5.54089
    Cl(r) = -1.59094

forceCoeffs canard_7 write:
    Cm    = 4.68452
    Cd    = 1.73603
    Cl    = 3.94995
    Cl(f) = 6.65949
    Cl(r) = -2.70954

forceCoeffs canard_8 write:
    Cm    = 5.80312
    Cd    = 1.73603
    Cl    = 3.94995
    Cl(f) = 7.7781
    Cl(r) = -3.82814

forceCoeffs canard_9 write:
    Cm    = 6.92172
    Cd    = 1.73603
    Cl    = 3.94995
    Cl(f) = 8.8967
    Cl(r) = -4.94675

forceCoeffs canard_10 write:
    Cm    = 8.04033
    Cd    = 1.73603
    Cl    = 3.94995
    Cl(f) = 10.0153
    Cl(r) = -6.06535

forceCoeffs canard_11 write:
    Cm    = 9.15893
    Cd    = 1.73603
    Cl    = 3.94995
    Cl(f) = 11.1339
    Cl(r) = -7.18396

Time = 8s

smoothSolver:  Solving for Ux, Initial residual = 0.0207229, Final residual = 0.00124317, No Iterations 4
smoothSolver:  Solving for Uy, Initial residual = 0.0112299, Final residual = 0.000750359, No Iterations 4
smoothSolver:  Solving for Uz, Initial residual = 0.133472, Final residual = 0.00776316, No Iterations 4
GAMG:  Solving for p, Initial residual = 0.257279, Final residual = 0.017338, No Iterations 3
time step continuity errors : sum local = 0.00116752, global = -3.60814e-05, cumulative = 4.42973e-05
smoothSolver:  Solving for nuTilda, Initial residual = 0.0343679, Final residual = 0.00142061, No Iterations 2
ExecutionTime = 93.1809 s  ClockTime = 94 s

forceCoeffs canard_1 write:
    Cm    = -1.46109
    Cd    = 1.28341
    Cl    = 3.26075
    Cl(f) = 0.169291
    Cl(r) = 3.09146

forceCoeffs canard_2 write:
    Cm    = -0.547823
    Cd    = 1.28341
    Cl    = 3.26075
    Cl(f) = 1.08255
    Cl(r) = 2.1782

forceCoeffs canard_3 write:
    Cm    = 0.365441
    Cd    = 1.28341
    Cl    = 3.26075
    Cl(f) = 1.99582
    Cl(r) = 1.26494

forceCoeffs canard_4 write:
    Cm    = 1.2787
    Cd    = 1.28341
    Cl    = 3.26075
    Cl(f) = 2.90908
    Cl(r) = 0.351672

forceCoeffs canard_5 write:
    Cm    = 2.19197
    Cd    = 1.28341
    Cl    = 3.26075
    Cl(f) = 3.82235
    Cl(r) = -0.561591

forceCoeffs canard_6 write:
    Cm    = 3.10523
    Cd    = 1.28341
    Cl    = 3.26075
    Cl(f) = 4.73561
    Cl(r) = -1.47485

forceCoeffs canard_7 write:
    Cm    = 4.0185
    Cd    = 1.28341
    Cl    = 3.26075
    Cl(f) = 5.64887
    Cl(r) = -2.38812

forceCoeffs canard_8 write:
    Cm    = 4.93176
    Cd    = 1.28341
    Cl    = 3.26075
    Cl(f) = 6.56214
    Cl(r) = -3.30138

forceCoeffs canard_9 write:
    Cm    = 5.84502
    Cd    = 1.28341
    Cl    = 3.26075
    Cl(f) = 7.4754
    Cl(r) = -4.21465

forceCoeffs canard_10 write:
    Cm    = 6.75829
    Cd    = 1.28341
    Cl    = 3.26075
    Cl(f) = 8.38866
    Cl(r) = -5.12791

forceCoeffs canard_11 write:
    Cm    = 7.67155
    Cd    = 1.28341
    Cl    = 3.26075
    Cl(f) = 9.30193
    Cl(r) = -6.04117

Time = 9s

smoothSolver:  Solving for Ux, Initial residual = 0.0145245, Final residual = 0.000897397, No Iterations 4
smoothSolver:  Solving for Uy, Initial residual = 0.00526691, Final residual = 0.000344689, No Iterations 4
smoothSolver:  Solving for Uz, Initial residual = 0.126173, Final residual = 0.0075989, No Iterations 4
GAMG:  Solving for p, Initial residual = 0.404978, Final residual = 0.0208795, No Iterations 3
time step continuity errors : sum local = 0.000987758, global = -1.05006e-05, cumulative = 3.37967e-05
smoothSolver:  Solving for nuTilda, Initial residual = 0.0309348, Final residual = 0.00139362, No Iterations 2
ExecutionTime = 102.613 s  ClockTime = 103 s

forceCoeffs canard_1 write:
    Cm    = -0.233468
    Cd    = 0.237048
    Cl    = 1.33054
    Cl(f) = 0.4318
    Cl(r) = 0.898736

forceCoeffs canard_2 write:
    Cm    = 0.119726
    Cd    = 0.237048
    Cl    = 1.33054
    Cl(f) = 0.784994
    Cl(r) = 0.545542

forceCoeffs canard_3 write:
    Cm    = 0.47292
    Cd    = 0.237048
    Cl    = 1.33054
    Cl(f) = 1.13819
    Cl(r) = 0.192348

forceCoeffs canard_4 write:
    Cm    = 0.826113
    Cd    = 0.237048
    Cl    = 1.33054
    Cl(f) = 1.49138
    Cl(r) = -0.160846

forceCoeffs canard_5 write:
    Cm    = 1.17931
    Cd    = 0.237048
    Cl    = 1.33054
    Cl(f) = 1.84457
    Cl(r) = -0.514039

forceCoeffs canard_6 write:
    Cm    = 1.5325
    Cd    = 0.237048
    Cl    = 1.33054
    Cl(f) = 2.19777
    Cl(r) = -0.867233

forceCoeffs canard_7 write:
    Cm    = 1.88569
    Cd    = 0.237048
    Cl    = 1.33054
    Cl(f) = 2.55096
    Cl(r) = -1.22043

forceCoeffs canard_8 write:
    Cm    = 2.23889
    Cd    = 0.237048
    Cl    = 1.33054
    Cl(f) = 2.90416
    Cl(r) = -1.57362

forceCoeffs canard_9 write:
    Cm    = 2.59208
    Cd    = 0.237048
    Cl    = 1.33054
    Cl(f) = 3.25735
    Cl(r) = -1.92681

forceCoeffs canard_10 write:
    Cm    = 2.94528
    Cd    = 0.237048
    Cl    = 1.33054
    Cl(f) = 3.61054
    Cl(r) = -2.28001

forceCoeffs canard_11 write:
    Cm    = 3.29847
    Cd    = 0.237048
    Cl    = 1.33054
    Cl(f) = 3.96374
    Cl(r) = -2.6332

Time = 10s

smoothSolver:  Solving for Ux, Initial residual = 0.0118815, Final residual = 0.000685903, No Iterations 4
smoothSolver:  Solving for Uy, Initial residual = 0.00404302, Final residual = 0.000239979, No Iterations 4
smoothSolver:  Solving for Uz, Initial residual = 0.110217, Final residual = 0.00637288, No Iterations 4
GAMG:  Solving for p, Initial residual = 0.143162, Final residual = 0.0140374, No Iterations 2
time step continuity errors : sum local = 0.00136196, global = 4.54121e-05, cumulative = 7.92087e-05
smoothSolver:  Solving for nuTilda, Initial residual = 0.0272304, Final residual = 0.00123519, No Iterations 2
bounding nuTilda, min: -0.0105192 max: 0.0652577 average: 0.0157658
ExecutionTime = 118.2 s  ClockTime = 119 s

forceCoeffs canard_1 write:
    Cm    = 0.384845
    Cd    = -0.312585
    Cl    = 0.254161
    Cl(f) = 0.511926
    Cl(r) = -0.257765

forceCoeffs canard_2 write:
    Cm    = 0.428018
    Cd    = -0.312585
    Cl    = 0.254161
    Cl(f) = 0.555099
    Cl(r) = -0.300938

forceCoeffs canard_3 write:
    Cm    = 0.471192
    Cd    = -0.312585
    Cl    = 0.254161
    Cl(f) = 0.598272
    Cl(r) = -0.344111

forceCoeffs canard_4 write:
    Cm    = 0.514365
    Cd    = -0.312585
    Cl    = 0.254161
    Cl(f) = 0.641445
    Cl(r) = -0.387284

forceCoeffs canard_5 write:
    Cm    = 0.557538
    Cd    = -0.312585
    Cl    = 0.254161
    Cl(f) = 0.684618
    Cl(r) = -0.430457

forceCoeffs canard_6 write:
    Cm    = 0.600711
    Cd    = -0.312585
    Cl    = 0.254161
    Cl(f) = 0.727791
    Cl(r) = -0.473631

forceCoeffs canard_7 write:
    Cm    = 0.643884
    Cd    = -0.312585
    Cl    = 0.254161
    Cl(f) = 0.770965
    Cl(r) = -0.516804

forceCoeffs canard_8 write:
    Cm    = 0.687057
    Cd    = -0.312585
    Cl    = 0.254161
    Cl(f) = 0.814138
    Cl(r) = -0.559977

forceCoeffs canard_9 write:
    Cm    = 0.73023
    Cd    = -0.312585
    Cl    = 0.254161
    Cl(f) = 0.857311
    Cl(r) = -0.60315

forceCoeffs canard_10 write:
    Cm    = 0.773404
    Cd    = -0.312585
    Cl    = 0.254161
    Cl(f) = 0.900484
    Cl(r) = -0.646323

forceCoeffs canard_11 write:
    Cm    = 0.816577
    Cd    = -0.312585
    Cl    = 0.254161
    Cl(f) = 0.943657
    Cl(r) = -0.689496

Time = 11s

smoothSolver:  Solving for Ux, Initial residual = 0.0112441, Final residual = 0.000619768, No Iterations 4
smoothSolver:  Solving for Uy, Initial residual = 0.00511999, Final residual = 0.000316622, No Iterations 4
smoothSolver:  Solving for Uz, Initial residual = 0.0859602, Final residual = 0.00486408, No Iterations 4
GAMG:  Solving for p, Initial residual = 0.0765823, Final residual = 0.00498858, No Iterations 3
time step continuity errors : sum local = 0.000871809, global = 2.75301e-05, cumulative = 0.000106739
smoothSolver:  Solving for nuTilda, Initial residual = 0.0248871, Final residual = 0.00120373, No Iterations 2
bounding nuTilda, min: -0.011529 max: 0.0652577 average: 0.0155798
ExecutionTime = 127.618 s  ClockTime = 129 s

forceCoeffs canard_1 write:
    Cm    = 0.218055
    Cd    = -0.210236
    Cl    = 0.356692
    Cl(f) = 0.396401
    Cl(r) = -0.0397092

forceCoeffs canard_2 write:
    Cm    = 0.294154
    Cd    = -0.210236
    Cl    = 0.356692
    Cl(f) = 0.4725
    Cl(r) = -0.115808

forceCoeffs canard_3 write:
    Cm    = 0.370252
    Cd    = -0.210236
    Cl    = 0.356692
    Cl(f) = 0.548598
    Cl(r) = -0.191906

forceCoeffs canard_4 write:
    Cm    = 0.44635
    Cd    = -0.210236
    Cl    = 0.356692
    Cl(f) = 0.624697
    Cl(r) = -0.268004

forceCoeffs canard_5 write:
    Cm    = 0.522449
    Cd    = -0.210236
    Cl    = 0.356692
    Cl(f) = 0.700795
    Cl(r) = -0.344103

forceCoeffs canard_6 write:
    Cm    = 0.598547
    Cd    = -0.210236
    Cl    = 0.356692
    Cl(f) = 0.776893
    Cl(r) = -0.420201

forceCoeffs canard_7 write:
    Cm    = 0.674646
    Cd    = -0.210236
    Cl    = 0.356692
    Cl(f) = 0.852992
    Cl(r) = -0.496299

forceCoeffs canard_8 write:
    Cm    = 0.750744
    Cd    = -0.210236
    Cl    = 0.356692
    Cl(f) = 0.92909
    Cl(r) = -0.572398

forceCoeffs canard_9 write:
    Cm    = 0.826842
    Cd    = -0.210236
    Cl    = 0.356692
    Cl(f) = 1.00519
    Cl(r) = -0.648496

forceCoeffs canard_10 write:
    Cm    = 0.902941
    Cd    = -0.210236
    Cl    = 0.356692
    Cl(f) = 1.08129
    Cl(r) = -0.724595

forceCoeffs canard_11 write:
    Cm    = 0.979039
    Cd    = -0.210236
    Cl    = 0.356692
    Cl(f) = 1.15739
    Cl(r) = -0.800693

Time = 12s

smoothSolver:  Solving for Ux, Initial residual = 0.0109086, Final residual = 0.000579936, No Iterations 4
smoothSolver:  Solving for Uy, Initial residual = 0.00531087, Final residual = 0.000328967, No Iterations 4
smoothSolver:  Solving for Uz, Initial residual = 0.0612379, Final residual = 0.00339743, No Iterations 4
GAMG:  Solving for p, Initial residual = 0.0753344, Final residual = 0.00420905, No Iterations 3
time step continuity errors : sum local = 0.000794133, global = 2.98432e-05, cumulative = 0.000136582
smoothSolver:  Solving for nuTilda, Initial residual = 0.0218674, Final residual = 0.000975777, No Iterations 2
bounding nuTilda, min: -0.00936349 max: 0.0652577 average: 0.0154189
ExecutionTime = 137.405 s  ClockTime = 138 s

forceCoeffs canard_1 write:
    Cm    = -0.294128
    Cd    = 0.209126
    Cl    = 1.10649
    Cl(f) = 0.259118
    Cl(r) = 0.847375

forceCoeffs canard_2 write:
    Cm    = 0.000407183
    Cd    = 0.209126
    Cl    = 1.10649
    Cl(f) = 0.553654
    Cl(r) = 0.552839

forceCoeffs canard_3 write:
    Cm    = 0.294943
    Cd    = 0.209126
    Cl    = 1.10649
    Cl(f) = 0.848189
    Cl(r) = 0.258304

forceCoeffs canard_4 write:
    Cm    = 0.589478
    Cd    = 0.209126
    Cl    = 1.10649
    Cl(f) = 1.14272
    Cl(r) = -0.0362314

forceCoeffs canard_5 write:
    Cm    = 0.884013
    Cd    = 0.209126
    Cl    = 1.10649
    Cl(f) = 1.43726
    Cl(r) = -0.330767

forceCoeffs canard_6 write:
    Cm    = 1.17855
    Cd    = 0.209126
    Cl    = 1.10649
    Cl(f) = 1.73179
    Cl(r) = -0.625302

forceCoeffs canard_7 write:
    Cm    = 1.47308
    Cd    = 0.209126
    Cl    = 1.10649
    Cl(f) = 2.02633
    Cl(r) = -0.919837

forceCoeffs canard_8 write:
    Cm    = 1.76762
    Cd    = 0.209126
    Cl    = 1.10649
    Cl(f) = 2.32087
    Cl(r) = -1.21437

forceCoeffs canard_9 write:
    Cm    = 2.06215
    Cd    = 0.209126
    Cl    = 1.10649
    Cl(f) = 2.6154
    Cl(r) = -1.50891

forceCoeffs canard_10 write:
    Cm    = 2.35669
    Cd    = 0.209126
    Cl    = 1.10649
    Cl(f) = 2.90994
    Cl(r) = -1.80344

forceCoeffs canard_11 write:
    Cm    = 2.65123
    Cd    = 0.209126
    Cl    = 1.10649
    Cl(f) = 3.20447
    Cl(r) = -2.09798

Time = 13s

smoothSolver:  Solving for Ux, Initial residual = 0.0101264, Final residual = 0.000539048, No Iterations 4
smoothSolver:  Solving for Uy, Initial residual = 0.00562948, Final residual = 0.000336161, No Iterations 4
smoothSolver:  Solving for Uz, Initial residual = 0.0579962, Final residual = 0.00329667, No Iterations 4
GAMG:  Solving for p, Initial residual = 0.0825475, Final residual = 0.00755916, No Iterations 2
time step continuity errors : sum local = 0.00101494, global = 1.12179e-05, cumulative = 0.0001478
smoothSolver:  Solving for nuTilda, Initial residual = 0.020921, Final residual = 0.000996475, No Iterations 2
bounding nuTilda, min: -0.00943625 max: 0.0652577 average: 0.0152806
ExecutionTime = 146.438 s  ClockTime = 147 s

forceCoeffs canard_1 write:
    Cm    = -0.58818
    Cd    = 0.468897
    Cl    = 1.60502
    Cl(f) = 0.214332
    Cl(r) = 1.39069

forceCoeffs canard_2 write:
    Cm    = -0.149703
    Cd    = 0.468897
    Cl    = 1.60502
    Cl(f) = 0.652809
    Cl(r) = 0.952215

forceCoeffs canard_3 write:
    Cm    = 0.288774
    Cd    = 0.468897
    Cl    = 1.60502
    Cl(f) = 1.09129
    Cl(r) = 0.513738

forceCoeffs canard_4 write:
    Cm    = 0.727251
    Cd    = 0.468897
    Cl    = 1.60502
    Cl(f) = 1.52976
    Cl(r) = 0.075261

forceCoeffs canard_5 write:
    Cm    = 1.16573
    Cd    = 0.468897
    Cl    = 1.60502
    Cl(f) = 1.96824
    Cl(r) = -0.363216

forceCoeffs canard_6 write:
    Cm    = 1.60421
    Cd    = 0.468897
    Cl    = 1.60502
    Cl(f) = 2.40672
    Cl(r) = -0.801693

forceCoeffs canard_7 write:
    Cm    = 2.04268
    Cd    = 0.468897
    Cl    = 1.60502
    Cl(f) = 2.8452
    Cl(r) = -1.24017

forceCoeffs canard_8 write:
    Cm    = 2.48116
    Cd    = 0.468897
    Cl    = 1.60502
    Cl(f) = 3.28367
    Cl(r) = -1.67865

forceCoeffs canard_9 write:
    Cm    = 2.91964
    Cd    = 0.468897
    Cl    = 1.60502
    Cl(f) = 3.72215
    Cl(r) = -2.11713

forceCoeffs canard_10 write:
    Cm    = 3.35811
    Cd    = 0.468897
    Cl    = 1.60502
    Cl(f) = 4.16063
    Cl(r) = -2.5556

forceCoeffs canard_11 write:
    Cm    = 3.79659
    Cd    = 0.468897
    Cl    = 1.60502
    Cl(f) = 4.5991
    Cl(r) = -2.99408

Time = 14s

smoothSolver:  Solving for Ux, Initial residual = 0.0084608, Final residual = 0.000460113, No Iterations 4
smoothSolver:  Solving for Uy, Initial residual = 0.00507747, Final residual = 0.000304132, No Iterations 4
smoothSolver:  Solving for Uz, Initial residual = 0.0558105, Final residual = 0.00311943, No Iterations 4
GAMG:  Solving for p, Initial residual = 0.131663, Final residual = 0.00691951, No Iterations 3
time step continuity errors : sum local = 0.000535487, global = -8.79884e-06, cumulative = 0.000139001
smoothSolver:  Solving for nuTilda, Initial residual = 0.018337, Final residual = 0.000511667, No Iterations 2
bounding nuTilda, min: -0.00832008 max: 0.0652577 average: 0.0151618
ExecutionTime = 156.163 s  ClockTime = 157 s

forceCoeffs canard_1 write:
    Cm    = -0.571842
    Cd    = 0.493349
    Cl    = 1.71938
    Cl(f) = 0.287849
    Cl(r) = 1.43153

forceCoeffs canard_2 write:
    Cm    = -0.102732
    Cd    = 0.493349
    Cl    = 1.71938
    Cl(f) = 0.756959
    Cl(r) = 0.962423

forceCoeffs canard_3 write:
    Cm    = 0.366379
    Cd    = 0.493349
    Cl    = 1.71938
    Cl(f) = 1.22607
    Cl(r) = 0.493312

forceCoeffs canard_4 write:
    Cm    = 0.835489
    Cd    = 0.493349
    Cl    = 1.71938
    Cl(f) = 1.69518
    Cl(r) = 0.0242017

forceCoeffs canard_5 write:
    Cm    = 1.3046
    Cd    = 0.493349
    Cl    = 1.71938
    Cl(f) = 2.16429
    Cl(r) = -0.444909

forceCoeffs canard_6 write:
    Cm    = 1.77371
    Cd    = 0.493349
    Cl    = 1.71938
    Cl(f) = 2.6334
    Cl(r) = -0.914019

forceCoeffs canard_7 write:
    Cm    = 2.24282
    Cd    = 0.493349
    Cl    = 1.71938
    Cl(f) = 3.10251
    Cl(r) = -1.38313

forceCoeffs canard_8 write:
    Cm    = 2.71193
    Cd    = 0.493349
    Cl    = 1.71938
    Cl(f) = 3.57162
    Cl(r) = -1.85224

forceCoeffs canard_9 write:
    Cm    = 3.18104
    Cd    = 0.493349
    Cl    = 1.71938
    Cl(f) = 4.04073
    Cl(r) = -2.32135

forceCoeffs canard_10 write:
    Cm    = 3.65015
    Cd    = 0.493349
    Cl    = 1.71938
    Cl(f) = 4.50984
    Cl(r) = -2.79046

forceCoeffs canard_11 write:
    Cm    = 4.11926
    Cd    = 0.493349
    Cl    = 1.71938
    Cl(f) = 4.97895
    Cl(r) = -3.25957

Time = 15s

smoothSolver:  Solving for Ux, Initial residual = 0.00734662, Final residual = 0.000403455, No Iterations 4
smoothSolver:  Solving for Uy, Initial residual = 0.00373988, Final residual = 0.000223781, No Iterations 4
smoothSolver:  Solving for Uz, Initial residual = 0.0504711, Final residual = 0.00274762, No Iterations 4
GAMG:  Solving for p, Initial residual = 0.199084, Final residual = 0.0112985, No Iterations 3
time step continuity errors : sum local = 0.000594391, global = -2.35773e-05, cumulative = 0.000115424
smoothSolver:  Solving for nuTilda, Initial residual = 0.0195212, Final residual = 0.00128172, No Iterations 2
bounding nuTilda, min: -0.00907989 max: 0.0652577 average: 0.0150601
ExecutionTime = 165.977 s  ClockTime = 167 s

forceCoeffs canard_1 write:
    Cm    = -0.363861
    Cd    = 0.345859
    Cl    = 1.49412
    Cl(f) = 0.383199
    Cl(r) = 1.11092

forceCoeffs canard_2 write:
    Cm    = 0.0381647
    Cd    = 0.345859
    Cl    = 1.49412
    Cl(f) = 0.785224
    Cl(r) = 0.708895

forceCoeffs canard_3 write:
    Cm    = 0.44019
    Cd    = 0.345859
    Cl    = 1.49412
    Cl(f) = 1.18725
    Cl(r) = 0.306869

forceCoeffs canard_4 write:
    Cm    = 0.842216
    Cd    = 0.345859
    Cl    = 1.49412
    Cl(f) = 1.58928
    Cl(r) = -0.0951565

forceCoeffs canard_5 write:
    Cm    = 1.24424
    Cd    = 0.345859
    Cl    = 1.49412
    Cl(f) = 1.9913
    Cl(r) = -0.497182

forceCoeffs canard_6 write:
    Cm    = 1.64627
    Cd    = 0.345859
    Cl    = 1.49412
    Cl(f) = 2.39333
    Cl(r) = -0.899208

forceCoeffs canard_7 write:
    Cm    = 2.04829
    Cd    = 0.345859
    Cl    = 1.49412
    Cl(f) = 2.79535
    Cl(r) = -1.30123

forceCoeffs canard_8 write:
    Cm    = 2.45032
    Cd    = 0.345859
    Cl    = 1.49412
    Cl(f) = 3.19738
    Cl(r) = -1.70326

forceCoeffs canard_9 write:
    Cm    = 2.85234
    Cd    = 0.345859
    Cl    = 1.49412
    Cl(f) = 3.5994
    Cl(r) = -2.10529

forceCoeffs canard_10 write:
    Cm    = 3.25437
    Cd    = 0.345859
    Cl    = 1.49412
    Cl(f) = 4.00143
    Cl(r) = -2.50731

forceCoeffs canard_11 write:
    Cm    = 3.6564
    Cd    = 0.345859
    Cl    = 1.49412
    Cl(f) = 4.40346
    Cl(r) = -2.90934

Time = 16s

smoothSolver:  Solving for Ux, Initial residual = 0.00719743, Final residual = 0.000399958, No Iterations 4
smoothSolver:  Solving for Uy, Initial residual = 0.00344902, Final residual = 0.000200634, No Iterations 4
smoothSolver:  Solving for Uz, Initial residual = 0.0541508, Final residual = 0.00301032, No Iterations 4
GAMG:  Solving for p, Initial residual = 0.110919, Final residual = 0.0107323, No Iterations 2
time step continuity errors : sum local = 0.000853658, global = -3.7372e-05, cumulative = 7.80518e-05
smoothSolver:  Solving for nuTilda, Initial residual = 0.0177258, Final residual = 0.000735831, No Iterations 2
bounding nuTilda, min: -0.00786875 max: 0.0652577 average: 0.0149722
ExecutionTime = 175.194 s  ClockTime = 176 s

forceCoeffs canard_1 write:
    Cm    = -0.217061
    Cd    = 0.234393
    Cl    = 1.31485
    Cl(f) = 0.440364
    Cl(r) = 0.874486

forceCoeffs canard_2 write:
    Cm    = 0.131979
    Cd    = 0.234393
    Cl    = 1.31485
    Cl(f) = 0.789404
    Cl(r) = 0.525446

forceCoeffs canard_3 write:
    Cm    = 0.481018
    Cd    = 0.234393
    Cl    = 1.31485
    Cl(f) = 1.13844
    Cl(r) = 0.176407

forceCoeffs canard_4 write:
    Cm    = 0.830058
    Cd    = 0.234393
    Cl    = 1.31485
    Cl(f) = 1.48748
    Cl(r) = -0.172633

forceCoeffs canard_5 write:
    Cm    = 1.1791
    Cd    = 0.234393
    Cl    = 1.31485
    Cl(f) = 1.83652
    Cl(r) = -0.521672

forceCoeffs canard_6 write:
    Cm    = 1.52814
    Cd    = 0.234393
    Cl    = 1.31485
    Cl(f) = 2.18556
    Cl(r) = -0.870712

forceCoeffs canard_7 write:
    Cm    = 1.87718
    Cd    = 0.234393
    Cl    = 1.31485
    Cl(f) = 2.5346
    Cl(r) = -1.21975

forceCoeffs canard_8 write:
    Cm    = 2.22622
    Cd    = 0.234393
    Cl    = 1.31485
    Cl(f) = 2.88364
    Cl(r) = -1.56879

forceCoeffs canard_9 write:
    Cm    = 2.57526
    Cd    = 0.234393
    Cl    = 1.31485
    Cl(f) = 3.23268
    Cl(r) = -1.91783

forceCoeffs canard_10 write:
    Cm    = 2.92429
    Cd    = 0.234393
    Cl    = 1.31485
    Cl(f) = 3.58172
    Cl(r) = -2.26687

forceCoeffs canard_11 write:
    Cm    = 3.27333
    Cd    = 0.234393
    Cl    = 1.31485
    Cl(f) = 3.93076
    Cl(r) = -2.61591

Time = 17s

smoothSolver:  Solving for Ux, Initial residual = 0.00718326, Final residual = 0.000391883, No Iterations 4
smoothSolver:  Solving for Uy, Initial residual = 0.00374286, Final residual = 0.000211149, No Iterations 4
smoothSolver:  Solving for Uz, Initial residual = 0.0517856, Final residual = 0.0027918, No Iterations 4
GAMG:  Solving for p, Initial residual = 0.0662414, Final residual = 0.00296467, No Iterations 3
time step continuity errors : sum local = 0.00035566, global = 5.4358e-06, cumulative = 8.34876e-05
smoothSolver:  Solving for nuTilda, Initial residual = 0.0171245, Final residual = 0.00101469, No Iterations 2
bounding nuTilda, min: -0.00862574 max: 0.0652577 average: 0.0148961
ExecutionTime = 184.951 s  ClockTime = 199 s

forceCoeffs canard_1 write:
    Cm    = -0.16484
    Cd    = 0.188598
    Cl    = 1.23349
    Cl(f) = 0.451908
    Cl(r) = 0.781587

forceCoeffs canard_2 write:
    Cm    = 0.160479
    Cd    = 0.188598
    Cl    = 1.23349
    Cl(f) = 0.777226
    Cl(r) = 0.456269

forceCoeffs canard_3 write:
    Cm    = 0.485798
    Cd    = 0.188598
    Cl    = 1.23349
    Cl(f) = 1.10255
    Cl(r) = 0.13095

forceCoeffs canard_4 write:
    Cm    = 0.811116
    Cd    = 0.188598
    Cl    = 1.23349
    Cl(f) = 1.42786
    Cl(r) = -0.194369

forceCoeffs canard_5 write:
    Cm    = 1.13643
    Cd    = 0.188598
    Cl    = 1.23349
    Cl(f) = 1.75318
    Cl(r) = -0.519687

forceCoeffs canard_6 write:
    Cm    = 1.46175
    Cd    = 0.188598
    Cl    = 1.23349
    Cl(f) = 2.0785
    Cl(r) = -0.845006

forceCoeffs canard_7 write:
    Cm    = 1.78707
    Cd    = 0.188598
    Cl    = 1.23349
    Cl(f) = 2.40382
    Cl(r) = -1.17032

forceCoeffs canard_8 write:
    Cm    = 2.11239
    Cd    = 0.188598
    Cl    = 1.23349
    Cl(f) = 2.72914
    Cl(r) = -1.49564

forceCoeffs canard_9 write:
    Cm    = 2.43771
    Cd    = 0.188598
    Cl    = 1.23349
    Cl(f) = 3.05446
    Cl(r) = -1.82096

forceCoeffs canard_10 write:
    Cm    = 2.76303
    Cd    = 0.188598
    Cl    = 1.23349
    Cl(f) = 3.37978
    Cl(r) = -2.14628

forceCoeffs canard_11 write:
    Cm    = 3.08835
    Cd    = 0.188598
    Cl    = 1.23349
    Cl(f) = 3.70509
    Cl(r) = -2.4716

Time = 18s

smoothSolver:  Solving for Ux, Initial residual = 0.00676545, Final residual = 0.000355487, No Iterations 4
smoothSolver:  Solving for Uy, Initial residual = 0.00384156, Final residual = 0.000210793, No Iterations 4
smoothSolver:  Solving for Uz, Initial residual = 0.0444952, Final residual = 0.00226966, No Iterations 4
GAMG:  Solving for p, Initial residual = 0.0505985, Final residual = 0.0025063, No Iterations 3
time step continuity errors : sum local = 0.00038584, global = 1.76875e-05, cumulative = 0.000101175
smoothSolver:  Solving for nuTilda, Initial residual = 0.0171585, Final residual = 0.000948412, No Iterations 2
bounding nuTilda, min: -0.00790717 max: 0.0652577 average: 0.0148296
ExecutionTime = 194.378 s  ClockTime = 195 s

forceCoeffs canard_1 write:
    Cm    = -0.201601
    Cd    = 0.216466
    Cl    = 1.28093
    Cl(f) = 0.438863
    Cl(r) = 0.842065

forceCoeffs canard_2 write:
    Cm    = 0.137627
    Cd    = 0.216466
    Cl    = 1.28093
    Cl(f) = 0.778091
    Cl(r) = 0.502837

forceCoeffs canard_3 write:
    Cm    = 0.476855
    Cd    = 0.216466
    Cl    = 1.28093
    Cl(f) = 1.11732
    Cl(r) = 0.163609

forceCoeffs canard_4 write:
    Cm    = 0.816083
    Cd    = 0.216466
    Cl    = 1.28093
    Cl(f) = 1.45655
    Cl(r) = -0.175619

forceCoeffs canard_5 write:
    Cm    = 1.15531
    Cd    = 0.216466
    Cl    = 1.28093
    Cl(f) = 1.79578
    Cl(r) = -0.514847

forceCoeffs canard_6 write:
    Cm    = 1.49454
    Cd    = 0.216466
    Cl    = 1.28093
    Cl(f) = 2.135
    Cl(r) = -0.854075

forceCoeffs canard_7 write:
    Cm    = 1.83377
    Cd    = 0.216466
    Cl    = 1.28093
    Cl(f) = 2.47423
    Cl(r) = -1.1933

forceCoeffs canard_8 write:
    Cm    = 2.173
    Cd    = 0.216466
    Cl    = 1.28093
    Cl(f) = 2.81346
    Cl(r) = -1.53253

forceCoeffs canard_9 write:
    Cm    = 2.51222
    Cd    = 0.216466
    Cl    = 1.28093
    Cl(f) = 3.15269
    Cl(r) = -1.87176

forceCoeffs canard_10 write:
    Cm    = 2.85145
    Cd    = 0.216466
    Cl    = 1.28093
    Cl(f) = 3.49191
    Cl(r) = -2.21099

forceCoeffs canard_11 write:
    Cm    = 3.19068
    Cd    = 0.216466
    Cl    = 1.28093
    Cl(f) = 3.83114
    Cl(r) = -2.55022

Time = 19s

smoothSolver:  Solving for Ux, Initial residual = 0.00613876, Final residual = 0.000327109, No Iterations 4
smoothSolver:  Solving for Uy, Initial residual = 0.00366541, Final residual = 0.000202803, No Iterations 4
smoothSolver:  Solving for Uz, Initial residual = 0.036776, Final residual = 0.00189741, No Iterations 4
GAMG:  Solving for p, Initial residual = 0.0474752, Final residual = 0.00449256, No Iterations 2
time step continuity errors : sum local = 0.000675056, global = 3.96281e-05, cumulative = 0.000140803
smoothSolver:  Solving for nuTilda, Initial residual = 0.0163872, Final residual = 0.000802918, No Iterations 2
bounding nuTilda, min: -0.00917553 max: 0.0652577 average: 0.0147713
ExecutionTime = 203.657 s  ClockTime = 205 s

forceCoeffs canard_1 write:
    Cm    = -0.235797
    Cd    = 0.245766
    Cl    = 1.33032
    Cl(f) = 0.429362
    Cl(r) = 0.900955

forceCoeffs canard_2 write:
    Cm    = 0.117933
    Cd    = 0.245766
    Cl    = 1.33032
    Cl(f) = 0.783092
    Cl(r) = 0.547225

forceCoeffs canard_3 write:
    Cm    = 0.471663
    Cd    = 0.245766
    Cl    = 1.33032
    Cl(f) = 1.13682
    Cl(r) = 0.193495

forceCoeffs canard_4 write:
    Cm    = 0.825394
    Cd    = 0.245766
    Cl    = 1.33032
    Cl(f) = 1.49055
    Cl(r) = -0.160235

forceCoeffs canard_5 write:
    Cm    = 1.17912
    Cd    = 0.245766
    Cl    = 1.33032
    Cl(f) = 1.84428
    Cl(r) = -0.513965

forceCoeffs canard_6 write:
    Cm    = 1.53285
    Cd    = 0.245766
    Cl    = 1.33032
    Cl(f) = 2.19801
    Cl(r) = -0.867696

forceCoeffs canard_7 write:
    Cm    = 1.88658
    Cd    = 0.245766
    Cl    = 1.33032
    Cl(f) = 2.55174
    Cl(r) = -1.22143

forceCoeffs canard_8 write:
    Cm    = 2.24031
    Cd    = 0.245766
    Cl    = 1.33032
    Cl(f) = 2.90547
    Cl(r) = -1.57516

forceCoeffs canard_9 write:
    Cm    = 2.59404
    Cd    = 0.245766
    Cl    = 1.33032
    Cl(f) = 3.2592
    Cl(r) = -1.92889

forceCoeffs canard_10 write:
    Cm    = 2.94777
    Cd    = 0.245766
    Cl    = 1.33032
    Cl(f) = 3.61293
    Cl(r) = -2.28262

forceCoeffs canard_11 write:
    Cm    = 3.3015
    Cd    = 0.245766
    Cl    = 1.33032
    Cl(f) = 3.96666
    Cl(r) = -2.63635

Time = 20s

smoothSolver:  Solving for Ux, Initial residual = 0.00545191, Final residual = 0.000291717, No Iterations 4
smoothSolver:  Solving for Uy, Initial residual = 0.00332926, Final residual = 0.000185516, No Iterations 4
smoothSolver:  Solving for Uz, Initial residual = 0.0309156, Final residual = 0.0016159, No Iterations 4
GAMG:  Solving for p, Initial residual = 0.0502217, Final residual = 0.00233777, No Iterations 3
time step continuity errors : sum local = 0.000298668, global = 1.49414e-05, cumulative = 0.000155745
smoothSolver:  Solving for nuTilda, Initial residual = 0.0167469, Final residual = 0.000892597, No Iterations 2
bounding nuTilda, min: -0.00869487 max: 0.0652577 average: 0.0147206
ExecutionTime = 219.055 s  ClockTime = 220 s

forceCoeffs canard_1 write:
    Cm    = -0.24326
    Cd    = 0.260552
    Cl    = 1.35373
    Cl(f) = 0.433604
    Cl(r) = 0.920123

forceCoeffs canard_2 write:
    Cm    = 0.117405
    Cd    = 0.260552
    Cl    = 1.35373
    Cl(f) = 0.794269
    Cl(r) = 0.559458

forceCoeffs canard_3 write:
    Cm    = 0.47807
    Cd    = 0.260552
    Cl    = 1.35373
    Cl(f) = 1.15493
    Cl(r) = 0.198793

forceCoeffs canard_4 write:
    Cm    = 0.838736
    Cd    = 0.260552
    Cl    = 1.35373
    Cl(f) = 1.5156
    Cl(r) = -0.161872

forceCoeffs canard_5 write:
    Cm    = 1.1994
    Cd    = 0.260552
    Cl    = 1.35373
    Cl(f) = 1.87626
    Cl(r) = -0.522537

forceCoeffs canard_6 write:
    Cm    = 1.56007
    Cd    = 0.260552
    Cl    = 1.35373
    Cl(f) = 2.23693
    Cl(r) = -0.883202

forceCoeffs canard_7 write:
    Cm    = 1.92073
    Cd    = 0.260552
    Cl    = 1.35373
    Cl(f) = 2.59759
    Cl(r) = -1.24387

forceCoeffs canard_8 write:
    Cm    = 2.2814
    Cd    = 0.260552
    Cl    = 1.35373
    Cl(f) = 2.95826
    Cl(r) = -1.60453

forceCoeffs canard_9 write:
    Cm    = 2.64206
    Cd    = 0.260552
    Cl    = 1.35373
    Cl(f) = 3.31892
    Cl(r) = -1.9652

forceCoeffs canard_10 write:
    Cm    = 3.00273
    Cd    = 0.260552
    Cl    = 1.35373
    Cl(f) = 3.67959
    Cl(r) = -2.32586

forceCoeffs canard_11 write:
    Cm    = 3.36339
    Cd    = 0.260552
    Cl    = 1.35373
    Cl(f) = 4.04026
    Cl(r) = -2.68653

Time = 21s

smoothSolver:  Solving for Ux, Initial residual = 0.00501027, Final residual = 0.000265819, No Iterations 4
smoothSolver:  Solving for Uy, Initial residual = 0.00316708, Final residual = 0.000171896, No Iterations 4
smoothSolver:  Solving for Uz, Initial residual = 0.0292791, Final residual = 0.00155683, No Iterations 4
GAMG:  Solving for p, Initial residual = 0.0556618, Final residual = 0.00512492, No Iterations 2
time step continuity errors : sum local = 0.000527066, global = -3.35502e-07, cumulative = 0.000155409
smoothSolver:  Solving for nuTilda, Initial residual = 0.0154476, Final residual = 0.000905696, No Iterations 2
bounding nuTilda, min: -0.00915354 max: 0.0652577 average: 0.0146754
ExecutionTime = 228.423 s  ClockTime = 229 s

forceCoeffs canard_1 write:
    Cm    = -0.224385
    Cd    = 0.254468
    Cl    = 1.34222
    Cl(f) = 0.446726
    Cl(r) = 0.895496

forceCoeffs canard_2 write:
    Cm    = 0.132952
    Cd    = 0.254468
    Cl    = 1.34222
    Cl(f) = 0.804063
    Cl(r) = 0.538159

forceCoeffs canard_3 write:
    Cm    = 0.490289
    Cd    = 0.254468
    Cl    = 1.34222
    Cl(f) = 1.1614
    Cl(r) = 0.180822

forceCoeffs canard_4 write:
    Cm    = 0.847626
    Cd    = 0.254468
    Cl    = 1.34222
    Cl(f) = 1.51874
    Cl(r) = -0.176515

forceCoeffs canard_5 write:
    Cm    = 1.20496
    Cd    = 0.254468
    Cl    = 1.34222
    Cl(f) = 1.87607
    Cl(r) = -0.533852

forceCoeffs canard_6 write:
    Cm    = 1.5623
    Cd    = 0.254468
    Cl    = 1.34222
    Cl(f) = 2.23341
    Cl(r) = -0.891189

forceCoeffs canard_7 write:
    Cm    = 1.91964
    Cd    = 0.254468
    Cl    = 1.34222
    Cl(f) = 2.59075
    Cl(r) = -1.24853

forceCoeffs canard_8 write:
    Cm    = 2.27697
    Cd    = 0.254468
    Cl    = 1.34222
    Cl(f) = 2.94809
    Cl(r) = -1.60586

forceCoeffs canard_9 write:
    Cm    = 2.63431
    Cd    = 0.254468
    Cl    = 1.34222
    Cl(f) = 3.30542
    Cl(r) = -1.9632

forceCoeffs canard_10 write:
    Cm    = 2.99165
    Cd    = 0.254468
    Cl    = 1.34222
    Cl(f) = 3.66276
    Cl(r) = -2.32054

forceCoeffs canard_11 write:
    Cm    = 3.34899
    Cd    = 0.254468
    Cl    = 1.34222
    Cl(f) = 4.0201
    Cl(r) = -2.67788

Time = 22s

smoothSolver:  Solving for Ux, Initial residual = 0.00480975, Final residual = 0.000256449, No Iterations 4
smoothSolver:  Solving for Uy, Initial residual = 0.00299151, Final residual = 0.000161554, No Iterations 4
smoothSolver:  Solving for Uz, Initial residual = 0.029381, Final residual = 0.00156933, No Iterations 4
GAMG:  Solving for p, Initial residual = 0.0544822, Final residual = 0.0053616, No Iterations 2
time step continuity errors : sum local = 0.000544199, global = -2.62705e-05, cumulative = 0.000129139
smoothSolver:  Solving for nuTilda, Initial residual = 0.0165067, Final residual = 0.000822079, No Iterations 2
bounding nuTilda, min: -0.00902569 max: 0.0652577 average: 0.0146355
ExecutionTime = 237.589 s  ClockTime = 239 s

forceCoeffs canard_1 write:
    Cm    = -0.206028
    Cd    = 0.25219
    Cl    = 1.34965
    Cl(f) = 0.468796
    Cl(r) = 0.880852

forceCoeffs canard_2 write:
    Cm    = 0.153036
    Cd    = 0.25219
    Cl    = 1.34965
    Cl(f) = 0.82786
    Cl(r) = 0.521788

forceCoeffs canard_3 write:
    Cm    = 0.5121
    Cd    = 0.25219
    Cl    = 1.34965
    Cl(f) = 1.18692
    Cl(r) = 0.162724

forceCoeffs canard_4 write:
    Cm    = 0.871164
    Cd    = 0.25219
    Cl    = 1.34965
    Cl(f) = 1.54599
    Cl(r) = -0.19634

forceCoeffs canard_5 write:
    Cm    = 1.23023
    Cd    = 0.25219
    Cl    = 1.34965
    Cl(f) = 1.90505
    Cl(r) = -0.555404

forceCoeffs canard_6 write:
    Cm    = 1.58929
    Cd    = 0.25219
    Cl    = 1.34965
    Cl(f) = 2.26412
    Cl(r) = -0.914468

forceCoeffs canard_7 write:
    Cm    = 1.94836
    Cd    = 0.25219
    Cl    = 1.34965
    Cl(f) = 2.62318
    Cl(r) = -1.27353

forceCoeffs canard_8 write:
    Cm    = 2.30742
    Cd    = 0.25219
    Cl    = 1.34965
    Cl(f) = 2.98224
    Cl(r) = -1.6326

forceCoeffs canard_9 write:
    Cm    = 2.66648
    Cd    = 0.25219
    Cl    = 1.34965
    Cl(f) = 3.34131
    Cl(r) = -1.99166

forceCoeffs canard_10 write:
    Cm    = 3.02555
    Cd    = 0.25219
    Cl    = 1.34965
    Cl(f) = 3.70037
    Cl(r) = -2.35072

forceCoeffs canard_11 write:
    Cm    = 3.38461
    Cd    = 0.25219
    Cl    = 1.34965
    Cl(f) = 4.05944
    Cl(r) = -2.70979

Time = 23s

smoothSolver:  Solving for Ux, Initial residual = 0.0045876, Final residual = 0.000246562, No Iterations 4
smoothSolver:  Solving for Uy, Initial residual = 0.00277762, Final residual = 0.000151069, No Iterations 4
smoothSolver:  Solving for Uz, Initial residual = 0.0285732, Final residual = 0.00150379, No Iterations 4
GAMG:  Solving for p, Initial residual = 0.0436479, Final residual = 0.00217849, No Iterations 3
time step continuity errors : sum local = 0.000249666, global = -1.41407e-05, cumulative = 0.000114998
smoothSolver:  Solving for nuTilda, Initial residual = 0.0163606, Final residual = 0.000843585, No Iterations 2
bounding nuTilda, min: -0.00915985 max: 0.0652577 average: 0.0145999
ExecutionTime = 247.211 s  ClockTime = 248 s

forceCoeffs canard_1 write:
    Cm    = -0.194713
    Cd    = 0.255741
    Cl    = 1.38059
    Cl(f) = 0.49558
    Cl(r) = 0.885005

forceCoeffs canard_2 write:
    Cm    = 0.172431
    Cd    = 0.255741
    Cl    = 1.38059
    Cl(f) = 0.862723
    Cl(r) = 0.517862

forceCoeffs canard_3 write:
    Cm    = 0.539574
    Cd    = 0.255741
    Cl    = 1.38059
    Cl(f) = 1.22987
    Cl(r) = 0.150719

forceCoeffs canard_4 write:
    Cm    = 0.906717
    Cd    = 0.255741
    Cl    = 1.38059
    Cl(f) = 1.59701
    Cl(r) = -0.216424

forceCoeffs canard_5 write:
    Cm    = 1.27386
    Cd    = 0.255741
    Cl    = 1.38059
    Cl(f) = 1.96415
    Cl(r) = -0.583568

forceCoeffs canard_6 write:
    Cm    = 1.641
    Cd    = 0.255741
    Cl    = 1.38059
    Cl(f) = 2.3313
    Cl(r) = -0.950711

forceCoeffs canard_7 write:
    Cm    = 2.00815
    Cd    = 0.255741
    Cl    = 1.38059
    Cl(f) = 2.69844
    Cl(r) = -1.31785

forceCoeffs canard_8 write:
    Cm    = 2.37529
    Cd    = 0.255741
    Cl    = 1.38059
    Cl(f) = 3.06558
    Cl(r) = -1.685

forceCoeffs canard_9 write:
    Cm    = 2.74243
    Cd    = 0.255741
    Cl    = 1.38059
    Cl(f) = 3.43273
    Cl(r) = -2.05214

forceCoeffs canard_10 write:
    Cm    = 3.10958
    Cd    = 0.255741
    Cl    = 1.38059
    Cl(f) = 3.79987
    Cl(r) = -2.41928

forceCoeffs canard_11 write:
    Cm    = 3.47672
    Cd    = 0.255741
    Cl    = 1.38059
    Cl(f) = 4.16701
    Cl(r) = -2.78643

Time = 24s

smoothSolver:  Solving for Ux, Initial residual = 0.00465654, Final residual = 0.000246603, No Iterations 4
smoothSolver:  Solving for Uy, Initial residual = 0.0029532, Final residual = 0.000157027, No Iterations 4
smoothSolver:  Solving for Uz, Initial residual = 0.0302588, Final residual = 0.00153866, No Iterations 4
GAMG:  Solving for p, Initial residual = 0.0335027, Final residual = 0.00313373, No Iterations 2
time step continuity errors : sum local = 0.000415303, global = -2.06335e-05, cumulative = 9.43644e-05
smoothSolver:  Solving for nuTilda, Initial residual = 0.0152618, Final residual = 0.000926214, No Iterations 2
bounding nuTilda, min: -0.00880268 max: 0.0652577 average: 0.0145685
ExecutionTime = 256.849 s  ClockTime = 258 s

forceCoeffs canard_1 write:
    Cm    = -0.188143
    Cd    = 0.254867
    Cl    = 1.39546
    Cl(f) = 0.509587
    Cl(r) = 0.885874

forceCoeffs canard_2 write:
    Cm    = 0.182709
    Cd    = 0.254867
    Cl    = 1.39546
    Cl(f) = 0.88044
    Cl(r) = 0.515021

forceCoeffs canard_3 write:
    Cm    = 0.553562
    Cd    = 0.254867
    Cl    = 1.39546
    Cl(f) = 1.25129
    Cl(r) = 0.144168

forceCoeffs canard_4 write:
    Cm    = 0.924415
    Cd    = 0.254867
    Cl    = 1.39546
    Cl(f) = 1.62215
    Cl(r) = -0.226684

forceCoeffs canard_5 write:
    Cm    = 1.29527
    Cd    = 0.254867
    Cl    = 1.39546
    Cl(f) = 1.993
    Cl(r) = -0.597537

forceCoeffs canard_6 write:
    Cm    = 1.66612
    Cd    = 0.254867
    Cl    = 1.39546
    Cl(f) = 2.36385
    Cl(r) = -0.96839

forceCoeffs canard_7 write:
    Cm    = 2.03697
    Cd    = 0.254867
    Cl    = 1.39546
    Cl(f) = 2.7347
    Cl(r) = -1.33924

forceCoeffs canard_8 write:
    Cm    = 2.40783
    Cd    = 0.254867
    Cl    = 1.39546
    Cl(f) = 3.10556
    Cl(r) = -1.7101

forceCoeffs canard_9 write:
    Cm    = 2.77868
    Cd    = 0.254867
    Cl    = 1.39546
    Cl(f) = 3.47641
    Cl(r) = -2.08095

forceCoeffs canard_10 write:
    Cm    = 3.14953
    Cd    = 0.254867
    Cl    = 1.39546
    Cl(f) = 3.84726
    Cl(r) = -2.4518

forceCoeffs canard_11 write:
    Cm    = 3.52039
    Cd    = 0.254867
    Cl    = 1.39546
    Cl(f) = 4.21812
    Cl(r) = -2.82265

Time = 25s

smoothSolver:  Solving for Ux, Initial residual = 0.00453924, Final residual = 0.00023685, No Iterations 4
smoothSolver:  Solving for Uy, Initial residual = 0.00301384, Final residual = 0.000157639, No Iterations 4
smoothSolver:  Solving for Uz, Initial residual = 0.0290245, Final residual = 0.0014454, No Iterations 4
GAMG:  Solving for p, Initial residual = 0.0318735, Final residual = 0.0030205, No Iterations 2
time step continuity errors : sum local = 0.000415942, global = 4.4494e-06, cumulative = 9.88138e-05
smoothSolver:  Solving for nuTilda, Initial residual = 0.0164143, Final residual = 0.000771068, No Iterations 2
bounding nuTilda, min: -0.00915717 max: 0.0652577 average: 0.01454
ExecutionTime = 266.359 s  ClockTime = 267 s

forceCoeffs canard_1 write:
    Cm    = -0.173606
    Cd    = 0.242731
    Cl    = 1.38369
    Cl(f) = 0.51824
    Cl(r) = 0.865452

forceCoeffs canard_2 write:
    Cm    = 0.193441
    Cd    = 0.242731
    Cl    = 1.38369
    Cl(f) = 0.885288
    Cl(r) = 0.498405

forceCoeffs canard_3 write:
    Cm    = 0.560489
    Cd    = 0.242731
    Cl    = 1.38369
    Cl(f) = 1.25234
    Cl(r) = 0.131358

forceCoeffs canard_4 write:
    Cm    = 0.927536
    Cd    = 0.242731
    Cl    = 1.38369
    Cl(f) = 1.61938
    Cl(r) = -0.23569

forceCoeffs canard_5 write:
    Cm    = 1.29458
    Cd    = 0.242731
    Cl    = 1.38369
    Cl(f) = 1.98643
    Cl(r) = -0.602737

forceCoeffs canard_6 write:
    Cm    = 1.66163
    Cd    = 0.242731
    Cl    = 1.38369
    Cl(f) = 2.35348
    Cl(r) = -0.969784

forceCoeffs canard_7 write:
    Cm    = 2.02868
    Cd    = 0.242731
    Cl    = 1.38369
    Cl(f) = 2.72052
    Cl(r) = -1.33683

forceCoeffs canard_8 write:
    Cm    = 2.39573
    Cd    = 0.242731
    Cl    = 1.38369
    Cl(f) = 3.08757
    Cl(r) = -1.70388

forceCoeffs canard_9 write:
    Cm    = 2.76277
    Cd    = 0.242731
    Cl    = 1.38369
    Cl(f) = 3.45462
    Cl(r) = -2.07093

forceCoeffs canard_10 write:
    Cm    = 3.12982
    Cd    = 0.242731
    Cl    = 1.38369
    Cl(f) = 3.82167
    Cl(r) = -2.43797

forceCoeffs canard_11 write:
    Cm    = 3.49687
    Cd    = 0.242731
    Cl    = 1.38369
    Cl(f) = 4.18871
    Cl(r) = -2.80502

Time = 26s

smoothSolver:  Solving for Ux, Initial residual = 0.00422102, Final residual = 0.000220169, No Iterations 4
smoothSolver:  Solving for Uy, Initial residual = 0.00289589, Final residual = 0.000150836, No Iterations 4
smoothSolver:  Solving for Uz, Initial residual = 0.0251269, Final residual = 0.00123561, No Iterations 4
GAMG:  Solving for p, Initial residual = 0.0304117, Final residual = 0.00140478, No Iterations 3
time step continuity errors : sum local = 0.000188955, global = 1.17517e-05, cumulative = 0.000110566
smoothSolver:  Solving for nuTilda, Initial residual = 0.0149391, Final residual = 0.000870579, No Iterations 2
bounding nuTilda, min: -0.00851032 max: 0.0652577 average: 0.0145149
ExecutionTime = 275.895 s  ClockTime = 277 s

forceCoeffs canard_1 write:
    Cm    = -0.151192
    Cd    = 0.22073
    Cl    = 1.34127
    Cl(f) = 0.519443
    Cl(r) = 0.821826

forceCoeffs canard_2 write:
    Cm    = 0.203614
    Cd    = 0.22073
    Cl    = 1.34127
    Cl(f) = 0.874249
    Cl(r) = 0.467021

forceCoeffs canard_3 write:
    Cm    = 0.558419
    Cd    = 0.22073
    Cl    = 1.34127
    Cl(f) = 1.22905
    Cl(r) = 0.112215

forceCoeffs canard_4 write:
    Cm    = 0.913225
    Cd    = 0.22073
    Cl    = 1.34127
    Cl(f) = 1.58386
    Cl(r) = -0.24259

forceCoeffs canard_5 write:
    Cm    = 1.26803
    Cd    = 0.22073
    Cl    = 1.34127
    Cl(f) = 1.93867
    Cl(r) = -0.597396

forceCoeffs canard_6 write:
    Cm    = 1.62284
    Cd    = 0.22073
    Cl    = 1.34127
    Cl(f) = 2.29347
    Cl(r) = -0.952201

forceCoeffs canard_7 write:
    Cm    = 1.97764
    Cd    = 0.22073
    Cl    = 1.34127
    Cl(f) = 2.64828
    Cl(r) = -1.30701

forceCoeffs canard_8 write:
    Cm    = 2.33245
    Cd    = 0.22073
    Cl    = 1.34127
    Cl(f) = 3.00308
    Cl(r) = -1.66181

forceCoeffs canard_9 write:
    Cm    = 2.68725
    Cd    = 0.22073
    Cl    = 1.34127
    Cl(f) = 3.35789
    Cl(r) = -2.01662

forceCoeffs canard_10 write:
    Cm    = 3.04206
    Cd    = 0.22073
    Cl    = 1.34127
    Cl(f) = 3.71269
    Cl(r) = -2.37142

forceCoeffs canard_11 write:
    Cm    = 3.39686
    Cd    = 0.22073
    Cl    = 1.34127
    Cl(f) = 4.0675
    Cl(r) = -2.72623

Time = 27s

smoothSolver:  Solving for Ux, Initial residual = 0.00394843, Final residual = 0.000208357, No Iterations 4
smoothSolver:  Solving for Uy, Initial residual = 0.00274886, Final residual = 0.000146615, No Iterations 4
smoothSolver:  Solving for Uz, Initial residual = 0.0214959, Final residual = 0.00110183, No Iterations 4
GAMG:  Solving for p, Initial residual = 0.028318, Final residual = 0.00252032, No Iterations 2
time step continuity errors : sum local = 0.000321051, global = 2.36444e-05, cumulative = 0.00013421
smoothSolver:  Solving for nuTilda, Initial residual = 0.0163983, Final residual = 0.000885255, No Iterations 2
bounding nuTilda, min: -0.00915092 max: 0.0652577 average: 0.0144906
ExecutionTime = 285.527 s  ClockTime = 286 s

forceCoeffs canard_1 write:
    Cm    = -0.142295
    Cd    = 0.212495
    Cl    = 1.32176
    Cl(f) = 0.518585
    Cl(r) = 0.803175

forceCoeffs canard_2 write:
    Cm    = 0.207009
    Cd    = 0.212495
    Cl    = 1.32176
    Cl(f) = 0.867889
    Cl(r) = 0.453871

forceCoeffs canard_3 write:
    Cm    = 0.556312
    Cd    = 0.212495
    Cl    = 1.32176
    Cl(f) = 1.21719
    Cl(r) = 0.104568

forceCoeffs canard_4 write:
    Cm    = 0.905616
    Cd    = 0.212495
    Cl    = 1.32176
    Cl(f) = 1.5665
    Cl(r) = -0.244736

forceCoeffs canard_5 write:
    Cm    = 1.25492
    Cd    = 0.212495
    Cl    = 1.32176
    Cl(f) = 1.9158
    Cl(r) = -0.594039

forceCoeffs canard_6 write:
    Cm    = 1.60422
    Cd    = 0.212495
    Cl    = 1.32176
    Cl(f) = 2.2651
    Cl(r) = -0.943343

forceCoeffs canard_7 write:
    Cm    = 1.95353
    Cd    = 0.212495
    Cl    = 1.32176
    Cl(f) = 2.61441
    Cl(r) = -1.29265

forceCoeffs canard_8 write:
    Cm    = 2.30283
    Cd    = 0.212495
    Cl    = 1.32176
    Cl(f) = 2.96371
    Cl(r) = -1.64195

forceCoeffs canard_9 write:
    Cm    = 2.65213
    Cd    = 0.212495
    Cl    = 1.32176
    Cl(f) = 3.31301
    Cl(r) = -1.99125

forceCoeffs canard_10 write:
    Cm    = 3.00144
    Cd    = 0.212495
    Cl    = 1.32176
    Cl(f) = 3.66232
    Cl(r) = -2.34056

forceCoeffs canard_11 write:
    Cm    = 3.35074
    Cd    = 0.212495
    Cl    = 1.32176
    Cl(f) = 4.01162
    Cl(r) = -2.68986

Time = 28s

smoothSolver:  Solving for Ux, Initial residual = 0.00375511, Final residual = 0.000197724, No Iterations 4
smoothSolver:  Solving for Uy, Initial residual = 0.00261787, Final residual = 0.00014067, No Iterations 4
smoothSolver:  Solving for Uz, Initial residual = 0.0202551, Final residual = 0.00106406, No Iterations 4
GAMG:  Solving for p, Initial residual = 0.027719, Final residual = 0.00258626, No Iterations 2
time step continuity errors : sum local = 0.00032149, global = 9.74514e-06, cumulative = 0.000143955
smoothSolver:  Solving for nuTilda, Initial residual = 0.0149209, Final residual = 0.000809656, No Iterations 2
bounding nuTilda, min: -0.0081837 max: 0.0652577 average: 0.0144686
ExecutionTime = 294.98 s  ClockTime = 296 s

forceCoeffs canard_1 write:
    Cm    = -0.14289
    Cd    = 0.214506
    Cl    = 1.32114
    Cl(f) = 0.517679
    Cl(r) = 0.803459

forceCoeffs canard_2 write:
    Cm    = 0.206393
    Cd    = 0.214506
    Cl    = 1.32114
    Cl(f) = 0.866961
    Cl(r) = 0.454176

forceCoeffs canard_3 write:
    Cm    = 0.555675
    Cd    = 0.214506
    Cl    = 1.32114
    Cl(f) = 1.21624
    Cl(r) = 0.104894

forceCoeffs canard_4 write:
    Cm    = 0.904958
    Cd    = 0.214506
    Cl    = 1.32114
    Cl(f) = 1.56553
    Cl(r) = -0.244389

forceCoeffs canard_5 write:
    Cm    = 1.25424
    Cd    = 0.214506
    Cl    = 1.32114
    Cl(f) = 1.91481
    Cl(r) = -0.593671

forceCoeffs canard_6 write:
    Cm    = 1.60352
    Cd    = 0.214506
    Cl    = 1.32114
    Cl(f) = 2.26409
    Cl(r) = -0.942954

forceCoeffs canard_7 write:
    Cm    = 1.9528
    Cd    = 0.214506
    Cl    = 1.32114
    Cl(f) = 2.61337
    Cl(r) = -1.29224

forceCoeffs canard_8 write:
    Cm    = 2.30209
    Cd    = 0.214506
    Cl    = 1.32114
    Cl(f) = 2.96266
    Cl(r) = -1.64152

forceCoeffs canard_9 write:
    Cm    = 2.65137
    Cd    = 0.214506
    Cl    = 1.32114
    Cl(f) = 3.31194
    Cl(r) = -1.9908

forceCoeffs canard_10 write:
    Cm    = 3.00065
    Cd    = 0.214506
    Cl    = 1.32114
    Cl(f) = 3.66122
    Cl(r) = -2.34008

forceCoeffs canard_11 write:
    Cm    = 3.34993
    Cd    = 0.214506
    Cl    = 1.32114
    Cl(f) = 4.0105
    Cl(r) = -2.68937

Time = 29s

smoothSolver:  Solving for Ux, Initial residual = 0.00357786, Final residual = 0.000188139, No Iterations 4
smoothSolver:  Solving for Uy, Initial residual = 0.00252102, Final residual = 0.000132756, No Iterations 4
smoothSolver:  Solving for Uz, Initial residual = 0.0195841, Final residual = 0.00102417, No Iterations 4
GAMG:  Solving for p, Initial residual = 0.0257078, Final residual = 0.00245275, No Iterations 2
time step continuity errors : sum local = 0.000306981, global = -3.17589e-06, cumulative = 0.000140779
smoothSolver:  Solving for nuTilda, Initial residual = 0.0162314, Final residual = 0.000828954, No Iterations 2
bounding nuTilda, min: -0.00914696 max: 0.0652577 average: 0.0144466
ExecutionTime = 304.325 s  ClockTime = 305 s

forceCoeffs canard_1 write:
    Cm    = -0.150297
    Cd    = 0.224614
    Cl    = 1.3428
    Cl(f) = 0.521101
    Cl(r) = 0.821695

forceCoeffs canard_2 write:
    Cm    = 0.205159
    Cd    = 0.224614
    Cl    = 1.3428
    Cl(f) = 0.876557
    Cl(r) = 0.466239

forceCoeffs canard_3 write:
    Cm    = 0.560615
    Cd    = 0.224614
    Cl    = 1.3428
    Cl(f) = 1.23201
    Cl(r) = 0.110783

forceCoeffs canard_4 write:
    Cm    = 0.916071
    Cd    = 0.224614
    Cl    = 1.3428
    Cl(f) = 1.58747
    Cl(r) = -0.244673

forceCoeffs canard_5 write:
    Cm    = 1.27153
    Cd    = 0.224614
    Cl    = 1.3428
    Cl(f) = 1.94292
    Cl(r) = -0.600129

forceCoeffs canard_6 write:
    Cm    = 1.62698
    Cd    = 0.224614
    Cl    = 1.3428
    Cl(f) = 2.29838
    Cl(r) = -0.955585

forceCoeffs canard_7 write:
    Cm    = 1.98244
    Cd    = 0.224614
    Cl    = 1.3428
    Cl(f) = 2.65384
    Cl(r) = -1.31104

forceCoeffs canard_8 write:
    Cm    = 2.33789
    Cd    = 0.224614
    Cl    = 1.3428
    Cl(f) = 3.00929
    Cl(r) = -1.6665

forceCoeffs canard_9 write:
    Cm    = 2.69335
    Cd    = 0.224614
    Cl    = 1.3428
    Cl(f) = 3.36475
    Cl(r) = -2.02195

forceCoeffs canard_10 write:
    Cm    = 3.04881
    Cd    = 0.224614
    Cl    = 1.3428
    Cl(f) = 3.7202
    Cl(r) = -2.37741

forceCoeffs canard_11 write:
    Cm    = 3.40426
    Cd    = 0.224614
    Cl    = 1.3428
    Cl(f) = 4.07566
    Cl(r) = -2.73286

Time = 30s

smoothSolver:  Solving for Ux, Initial residual = 0.00352971, Final residual = 0.000188284, No Iterations 4
smoothSolver:  Solving for Uy, Initial residual = 0.00248379, Final residual = 0.000130031, No Iterations 4
smoothSolver:  Solving for Uz, Initial residual = 0.0200225, Final residual = 0.00103217, No Iterations 4
GAMG:  Solving for p, Initial residual = 0.0228904, Final residual = 0.00212051, No Iterations 2
time step continuity errors : sum local = 0.00027356, global = -1.58844e-05, cumulative = 0.000124895
smoothSolver:  Solving for nuTilda, Initial residual = 0.0142208, Final residual = 0.000924215, No Iterations 2
bounding nuTilda, min: -0.00505098 max: 0.0652577 average: 0.0144271
ExecutionTime = 319.938 s  ClockTime = 321 s

forceCoeffs canard_1 write:
    Cm    = -0.156059
    Cd    = 0.232764
    Cl    = 1.369
    Cl(f) = 0.528442
    Cl(r) = 0.840561

forceCoeffs canard_2 write:
    Cm    = 0.20659
    Cd    = 0.232764
    Cl    = 1.369
    Cl(f) = 0.891091
    Cl(r) = 0.477912

forceCoeffs canard_3 write:
    Cm    = 0.569238
    Cd    = 0.232764
    Cl    = 1.369
    Cl(f) = 1.25374
    Cl(r) = 0.115263

forceCoeffs canard_4 write:
    Cm    = 0.931887
    Cd    = 0.232764
    Cl    = 1.369
    Cl(f) = 1.61639
    Cl(r) = -0.247386

forceCoeffs canard_5 write:
    Cm    = 1.29454
    Cd    = 0.232764
    Cl    = 1.369
    Cl(f) = 1.97904
    Cl(r) = -0.610035

forceCoeffs canard_6 write:
    Cm    = 1.65719
    Cd    = 0.232764
    Cl    = 1.369
    Cl(f) = 2.34169
    Cl(r) = -0.972684

forceCoeffs canard_7 write:
    Cm    = 2.01983
    Cd    = 0.232764
    Cl    = 1.369
    Cl(f) = 2.70434
    Cl(r) = -1.33533

forceCoeffs canard_8 write:
    Cm    = 2.38248
    Cd    = 0.232764
    Cl    = 1.369
    Cl(f) = 3.06698
    Cl(r) = -1.69798

forceCoeffs canard_9 write:
    Cm    = 2.74513
    Cd    = 0.232764
    Cl    = 1.369
    Cl(f) = 3.42963
    Cl(r) = -2.06063

forceCoeffs canard_10 write:
    Cm    = 3.10778
    Cd    = 0.232764
    Cl    = 1.369
    Cl(f) = 3.79228
    Cl(r) = -2.42328

forceCoeffs canard_11 write:
    Cm    = 3.47043
    Cd    = 0.232764
    Cl    = 1.369
    Cl(f) = 4.15493
    Cl(r) = -2.78593

Time = 31s

smoothSolver:  Solving for Ux, Initial residual = 0.00351274, Final residual = 0.000187541, No Iterations 4
smoothSolver:  Solving for Uy, Initial residual = 0.00244845, Final residual = 0.000129422, No Iterations 4
smoothSolver:  Solving for Uz, Initial residual = 0.0201519, Final residual = 0.00101716, No Iterations 4
GAMG:  Solving for p, Initial residual = 0.0209442, Final residual = 0.00196686, No Iterations 2
time step continuity errors : sum local = 0.000261414, global = -2.0972e-05, cumulative = 0.000103923
smoothSolver:  Solving for nuTilda, Initial residual = 0.016356, Final residual = 0.000763518, No Iterations 2
bounding nuTilda, min: -0.00914466 max: 0.0652577 average: 0.014407
ExecutionTime = 329.19 s  ClockTime = 330 s

forceCoeffs canard_1 write:
    Cm    = -0.155917
    Cd    = 0.233331
    Cl    = 1.3849
    Cl(f) = 0.536533
    Cl(r) = 0.848366

forceCoeffs canard_2 write:
    Cm    = 0.210798
    Cd    = 0.233331
    Cl    = 1.3849
    Cl(f) = 0.903248
    Cl(r) = 0.481651

forceCoeffs canard_3 write:
    Cm    = 0.577513
    Cd    = 0.233331
    Cl    = 1.3849
    Cl(f) = 1.26996
    Cl(r) = 0.114936

forceCoeffs canard_4 write:
    Cm    = 0.944228
    Cd    = 0.233331
    Cl    = 1.3849
    Cl(f) = 1.63668
    Cl(r) = -0.251779

forceCoeffs canard_5 write:
    Cm    = 1.31094
    Cd    = 0.233331
    Cl    = 1.3849
    Cl(f) = 2.00339
    Cl(r) = -0.618493

forceCoeffs canard_6 write:
    Cm    = 1.67766
    Cd    = 0.233331
    Cl    = 1.3849
    Cl(f) = 2.37011
    Cl(r) = -0.985208

forceCoeffs canard_7 write:
    Cm    = 2.04437
    Cd    = 0.233331
    Cl    = 1.3849
    Cl(f) = 2.73682
    Cl(r) = -1.35192

forceCoeffs canard_8 write:
    Cm    = 2.41109
    Cd    = 0.233331
    Cl    = 1.3849
    Cl(f) = 3.10354
    Cl(r) = -1.71864

forceCoeffs canard_9 write:
    Cm    = 2.7778
    Cd    = 0.233331
    Cl    = 1.3849
    Cl(f) = 3.47025
    Cl(r) = -2.08535

forceCoeffs canard_10 write:
    Cm    = 3.14452
    Cd    = 0.233331
    Cl    = 1.3849
    Cl(f) = 3.83697
    Cl(r) = -2.45207

forceCoeffs canard_11 write:
    Cm    = 3.51123
    Cd    = 0.233331
    Cl    = 1.3849
    Cl(f) = 4.20368
    Cl(r) = -2.81878

Time = 32s

smoothSolver:  Solving for Ux, Initial residual = 0.00346134, Final residual = 0.000181957, No Iterations 4
smoothSolver:  Solving for Uy, Initial residual = 0.00245703, Final residual = 0.000129531, No Iterations 4
smoothSolver:  Solving for Uz, Initial residual = 0.0195304, Final residual = 0.000959264, No Iterations 4
GAMG:  Solving for p, Initial residual = 0.0196539, Final residual = 0.00187286, No Iterations 2
time step continuity errors : sum local = 0.000252738, global = -1.66986e-05, cumulative = 8.7224e-05
smoothSolver:  Solving for nuTilda, Initial residual = 0.0152682, Final residual = 0.000873761, No Iterations 2
bounding nuTilda, min: -0.00589533 max: 0.0652577 average: 0.0143894
ExecutionTime = 338.243 s  ClockTime = 339 s

forceCoeffs canard_1 write:
    Cm    = -0.149491
    Cd    = 0.225481
    Cl    = 1.38354
    Cl(f) = 0.542276
    Cl(r) = 0.841259

forceCoeffs canard_2 write:
    Cm    = 0.216345
    Cd    = 0.225481
    Cl    = 1.38354
    Cl(f) = 0.908112
    Cl(r) = 0.475423

forceCoeffs canard_3 write:
    Cm    = 0.582181
    Cd    = 0.225481
    Cl    = 1.38354
    Cl(f) = 1.27395
    Cl(r) = 0.109586

forceCoeffs canard_4 write:
    Cm    = 0.948018
    Cd    = 0.225481
    Cl    = 1.38354
    Cl(f) = 1.63979
    Cl(r) = -0.25625

forceCoeffs canard_5 write:
    Cm    = 1.31385
    Cd    = 0.225481
    Cl    = 1.38354
    Cl(f) = 2.00562
    Cl(r) = -0.622086

forceCoeffs canard_6 write:
    Cm    = 1.67969
    Cd    = 0.225481
    Cl    = 1.38354
    Cl(f) = 2.37146
    Cl(r) = -0.987923

forceCoeffs canard_7 write:
    Cm    = 2.04553
    Cd    = 0.225481
    Cl    = 1.38354
    Cl(f) = 2.73729
    Cl(r) = -1.35376

forceCoeffs canard_8 write:
    Cm    = 2.41136
    Cd    = 0.225481
    Cl    = 1.38354
    Cl(f) = 3.10313
    Cl(r) = -1.7196

forceCoeffs canard_9 write:
    Cm    = 2.7772
    Cd    = 0.225481
    Cl    = 1.38354
    Cl(f) = 3.46897
    Cl(r) = -2.08543

forceCoeffs canard_10 write:
    Cm    = 3.14304
    Cd    = 0.225481
    Cl    = 1.38354
    Cl(f) = 3.8348
    Cl(r) = -2.45127

forceCoeffs canard_11 write:
    Cm    = 3.50887
    Cd    = 0.225481
    Cl    = 1.38354
    Cl(f) = 4.20064
    Cl(r) = -2.8171

Time = 33s

smoothSolver:  Solving for Ux, Initial residual = 0.00338497, Final residual = 0.000175826, No Iterations 4
smoothSolver:  Solving for Uy, Initial residual = 0.00249883, Final residual = 0.000131856, No Iterations 4
smoothSolver:  Solving for Uz, Initial residual = 0.0186359, Final residual = 0.000905854, No Iterations 4
GAMG:  Solving for p, Initial residual = 0.0184671, Final residual = 0.00162579, No Iterations 2
time step continuity errors : sum local = 0.000219242, global = -5.76053e-06, cumulative = 8.14635e-05
smoothSolver:  Solving for nuTilda, Initial residual = 0.0152805, Final residual = 0.000877686, No Iterations 2
bounding nuTilda, min: -0.00914175 max: 0.0652577 average: 0.0143703
ExecutionTime = 347.633 s  ClockTime = 349 s

forceCoeffs canard_1 write:
    Cm    = -0.140955
    Cd    = 0.213962
    Cl    = 1.36846
    Cl(f) = 0.543278
    Cl(r) = 0.825187

forceCoeffs canard_2 write:
    Cm    = 0.220282
    Cd    = 0.213962
    Cl    = 1.36846
    Cl(f) = 0.904514
    Cl(r) = 0.463951

forceCoeffs canard_3 write:
    Cm    = 0.581518
    Cd    = 0.213962
    Cl    = 1.36846
    Cl(f) = 1.26575
    Cl(r) = 0.102715

forceCoeffs canard_4 write:
    Cm    = 0.942754
    Cd    = 0.213962
    Cl    = 1.36846
    Cl(f) = 1.62699
    Cl(r) = -0.258522

forceCoeffs canard_5 write:
    Cm    = 1.30399
    Cd    = 0.213962
    Cl    = 1.36846
    Cl(f) = 1.98822
    Cl(r) = -0.619758

forceCoeffs canard_6 write:
    Cm    = 1.66523
    Cd    = 0.213962
    Cl    = 1.36846
    Cl(f) = 2.34946
    Cl(r) = -0.980994

forceCoeffs canard_7 write:
    Cm    = 2.02646
    Cd    = 0.213962
    Cl    = 1.36846
    Cl(f) = 2.7107
    Cl(r) = -1.34223

forceCoeffs canard_8 write:
    Cm    = 2.3877
    Cd    = 0.213962
    Cl    = 1.36846
    Cl(f) = 3.07193
    Cl(r) = -1.70347

forceCoeffs canard_9 write:
    Cm    = 2.74894
    Cd    = 0.213962
    Cl    = 1.36846
    Cl(f) = 3.43317
    Cl(r) = -2.0647

forceCoeffs canard_10 write:
    Cm    = 3.11017
    Cd    = 0.213962
    Cl    = 1.36846
    Cl(f) = 3.7944
    Cl(r) = -2.42594

forceCoeffs canard_11 write:
    Cm    = 3.47141
    Cd    = 0.213962
    Cl    = 1.36846
    Cl(f) = 4.15564
    Cl(r) = -2.78717

Time = 34s

smoothSolver:  Solving for Ux, Initial residual = 0.00328277, Final residual = 0.000170543, No Iterations 4
smoothSolver:  Solving for Uy, Initial residual = 0.00248727, Final residual = 0.000132863, No Iterations 4
smoothSolver:  Solving for Uz, Initial residual = 0.0173706, Final residual = 0.000856393, No Iterations 4
GAMG:  Solving for p, Initial residual = 0.0173838, Final residual = 0.00149963, No Iterations 2
time step continuity errors : sum local = 0.000199885, global = 4.6473e-06, cumulative = 8.61108e-05
smoothSolver:  Solving for nuTilda, Initial residual = 0.0153851, Final residual = 0.000812899, No Iterations 2
bounding nuTilda, min: -0.00816262 max: 0.0652577 average: 0.014353
ExecutionTime = 356.83 s  ClockTime = 358 s

forceCoeffs canard_1 write:
    Cm    = -0.135349
    Cd    = 0.205522
    Cl    = 1.35272
    Cl(f) = 0.541013
    Cl(r) = 0.811711

forceCoeffs canard_2 write:
    Cm    = 0.221326
    Cd    = 0.205522
    Cl    = 1.35272
    Cl(f) = 0.897688
    Cl(r) = 0.455036

forceCoeffs canard_3 write:
    Cm    = 0.578001
    Cd    = 0.205522
    Cl    = 1.35272
    Cl(f) = 1.25436
    Cl(r) = 0.0983609

forceCoeffs canard_4 write:
    Cm    = 0.934676
    Cd    = 0.205522
    Cl    = 1.35272
    Cl(f) = 1.61104
    Cl(r) = -0.258314

forceCoeffs canard_5 write:
    Cm    = 1.29135
    Cd    = 0.205522
    Cl    = 1.35272
    Cl(f) = 1.96771
    Cl(r) = -0.614989

forceCoeffs canard_6 write:
    Cm    = 1.64803
    Cd    = 0.205522
    Cl    = 1.35272
    Cl(f) = 2.32439
    Cl(r) = -0.971664

forceCoeffs canard_7 write:
    Cm    = 2.0047
    Cd    = 0.205522
    Cl    = 1.35272
    Cl(f) = 2.68106
    Cl(r) = -1.32834

[...]
    Cl    = 1.63528
    Cl(f) = 4.93931
    Cl(r) = -3.30403

Time = 492s

smoothSolver:  Solving for Ux, Initial residual = 6.22364e-05, Final residual = 1.90484e-06, No Iterations 4
smoothSolver:  Solving for Uy, Initial residual = 7.2732e-06, Final residual = 2.58586e-07, No Iterations 4
smoothSolver:  Solving for Uz, Initial residual = 2.36622e-05, Final residual = 1.05431e-06, No Iterations 4
GAMG:  Solving for p, Initial residual = 0.000212585, Final residual = 1.72137e-05, No Iterations 1
time step continuity errors : sum local = 3.11522e-06, global = 3.69923e-07, cumulative = 4.49842e-05
smoothSolver:  Solving for nuTilda, Initial residual = 0.0139917, Final residual = 0.00071926, No Iterations 2
bounding nuTilda, min: -0.00514647 max: 0.107299 average: 0.0135405
ExecutionTime = 4822.37 s  ClockTime = 4825 s

forceCoeffs canard_1 write:
    Cm    = -0.165433
    Cd    = 0.212112
    Cl    = 1.63524
    Cl(f) = 0.652187
    Cl(r) = 0.983053

forceCoeffs canard_2 write:
    Cm    = 0.263267
    Cd    = 0.212112
    Cl    = 1.63524
    Cl(f) = 1.08089
    Cl(r) = 0.554353

forceCoeffs canard_3 write:
    Cm    = 0.691967
    Cd    = 0.212112
    Cl    = 1.63524
    Cl(f) = 1.50959
    Cl(r) = 0.125653

forceCoeffs canard_4 write:
    Cm    = 1.12067
    Cd    = 0.212112
    Cl    = 1.63524
    Cl(f) = 1.93829
    Cl(r) = -0.303047

forceCoeffs canard_5 write:
    Cm    = 1.54937
    Cd    = 0.212112
    Cl    = 1.63524
    Cl(f) = 2.36699
    Cl(r) = -0.731747

forceCoeffs canard_6 write:
    Cm    = 1.97807
    Cd    = 0.212112
    Cl    = 1.63524
    Cl(f) = 2.79569
    Cl(r) = -1.16045

forceCoeffs canard_7 write:
    Cm    = 2.40677
    Cd    = 0.212112
    Cl    = 1.63524
    Cl(f) = 3.22439
    Cl(r) = -1.58915

forceCoeffs canard_8 write:
    Cm    = 2.83547
    Cd    = 0.212112
    Cl    = 1.63524
    Cl(f) = 3.65309
    Cl(r) = -2.01785

forceCoeffs canard_9 write:
    Cm    = 3.26417
    Cd    = 0.212112
    Cl    = 1.63524
    Cl(f) = 4.08179
    Cl(r) = -2.44655

forceCoeffs canard_10 write:
    Cm    = 3.69287
    Cd    = 0.212112
    Cl    = 1.63524
    Cl(f) = 4.51049
    Cl(r) = -2.87525

forceCoeffs canard_11 write:
    Cm    = 4.12157
    Cd    = 0.212112
    Cl    = 1.63524
    Cl(f) = 4.93919
    Cl(r) = -3.30395

Time = 493s

smoothSolver:  Solving for Ux, Initial residual = 6.37989e-05, Final residual = 1.90221e-06, No Iterations 4
smoothSolver:  Solving for Uy, Initial residual = 7.36302e-06, Final residual = 2.58494e-07, No Iterations 4
smoothSolver:  Solving for Uz, Initial residual = 2.35009e-05, Final residual = 1.05737e-06, No Iterations 4
GAMG:  Solving for p, Initial residual = 0.000212777, Final residual = 1.79466e-05, No Iterations 1
time step continuity errors : sum local = 3.24791e-06, global = 2.74838e-07, cumulative = 4.52591e-05
smoothSolver:  Solving for nuTilda, Initial residual = 0.0138613, Final residual = 0.000568524, No Iterations 2
bounding nuTilda, min: -0.00925578 max: 0.107299 average: 0.0135397
ExecutionTime = 4830.95 s  ClockTime = 4834 s

forceCoeffs canard_1 write:
    Cm    = -0.165446
    Cd    = 0.212118
    Cl    = 1.6352
    Cl(f) = 0.652155
    Cl(r) = 0.983046

forceCoeffs canard_2 write:
    Cm    = 0.263245
    Cd    = 0.212118
    Cl    = 1.6352
    Cl(f) = 1.08085
    Cl(r) = 0.554355

forceCoeffs canard_3 write:
    Cm    = 0.691936
    Cd    = 0.212118
    Cl    = 1.6352
    Cl(f) = 1.50954
    Cl(r) = 0.125665

forceCoeffs canard_4 write:
    Cm    = 1.12063
    Cd    = 0.212118
    Cl    = 1.6352
    Cl(f) = 1.93823
    Cl(r) = -0.303026

forceCoeffs canard_5 write:
    Cm    = 1.54932
    Cd    = 0.212118
    Cl    = 1.6352
    Cl(f) = 2.36692
    Cl(r) = -0.731716

forceCoeffs canard_6 write:
    Cm    = 1.97801
    Cd    = 0.212118
    Cl    = 1.6352
    Cl(f) = 2.79561
    Cl(r) = -1.16041

forceCoeffs canard_7 write:
    Cm    = 2.4067
    Cd    = 0.212118
    Cl    = 1.6352
    Cl(f) = 3.2243
    Cl(r) = -1.5891

forceCoeffs canard_8 write:
    Cm    = 2.83539
    Cd    = 0.212118
    Cl    = 1.6352
    Cl(f) = 3.65299
    Cl(r) = -2.01779

forceCoeffs canard_9 write:
    Cm    = 3.26408
    Cd    = 0.212118
    Cl    = 1.6352
    Cl(f) = 4.08168
    Cl(r) = -2.44648

forceCoeffs canard_10 write:
    Cm    = 3.69277
    Cd    = 0.212118
    Cl    = 1.6352
    Cl(f) = 4.51037
    Cl(r) = -2.87517

forceCoeffs canard_11 write:
    Cm    = 4.12146
    Cd    = 0.212118
    Cl    = 1.6352
    Cl(f) = 4.93906
    Cl(r) = -3.30386

Time = 494s

smoothSolver:  Solving for Ux, Initial residual = 6.17042e-05, Final residual = 1.90186e-06, No Iterations 4
smoothSolver:  Solving for Uy, Initial residual = 7.3058e-06, Final residual = 2.59019e-07, No Iterations 4
smoothSolver:  Solving for Uz, Initial residual = 2.38467e-05, Final residual = 1.06084e-06, No Iterations 4
GAMG:  Solving for p, Initial residual = 0.000212045, Final residual = 1.81132e-05, No Iterations 1
time step continuity errors : sum local = 3.27806e-06, global = 5.88567e-07, cumulative = 4.58476e-05
smoothSolver:  Solving for nuTilda, Initial residual = 0.0138572, Final residual = 0.000669636, No Iterations 2
bounding nuTilda, min: -0.00602891 max: 0.107299 average: 0.013541
ExecutionTime = 4839.71 s  ClockTime = 4842 s

forceCoeffs canard_1 write:
    Cm    = -0.165458
    Cd    = 0.212125
    Cl    = 1.63516
    Cl(f) = 0.652122
    Cl(r) = 0.983038

forceCoeffs canard_2 write:
    Cm    = 0.263222
    Cd    = 0.212125
    Cl    = 1.63516
    Cl(f) = 1.0808
    Cl(r) = 0.554358

forceCoeffs canard_3 write:
    Cm    = 0.691903
    Cd    = 0.212125
    Cl    = 1.63516
    Cl(f) = 1.50948
    Cl(r) = 0.125677

forceCoeffs canard_4 write:
    Cm    = 1.12058
    Cd    = 0.212125
    Cl    = 1.63516
    Cl(f) = 1.93816
    Cl(r) = -0.303004

forceCoeffs canard_5 write:
    Cm    = 1.54926
    Cd    = 0.212125
    Cl    = 1.63516
    Cl(f) = 2.36684
    Cl(r) = -0.731684

forceCoeffs canard_6 write:
    Cm    = 1.97795
    Cd    = 0.212125
    Cl    = 1.63516
    Cl(f) = 2.79553
    Cl(r) = -1.16037

forceCoeffs canard_7 write:
    Cm    = 2.40663
    Cd    = 0.212125
    Cl    = 1.63516
    Cl(f) = 3.22421
    Cl(r) = -1.58905

forceCoeffs canard_8 write:
    Cm    = 2.83531
    Cd    = 0.212125
    Cl    = 1.63516
    Cl(f) = 3.65289
    Cl(r) = -2.01773

forceCoeffs canard_9 write:
    Cm    = 3.26399
    Cd    = 0.212125
    Cl    = 1.63516
    Cl(f) = 4.08157
    Cl(r) = -2.44641

forceCoeffs canard_10 write:
    Cm    = 3.69267
    Cd    = 0.212125
    Cl    = 1.63516
    Cl(f) = 4.51025
    Cl(r) = -2.87509

forceCoeffs canard_11 write:
    Cm    = 4.12135
    Cd    = 0.212125
    Cl    = 1.63516
    Cl(f) = 4.93893
    Cl(r) = -3.30377

Time = 495s

smoothSolver:  Solving for Ux, Initial residual = 6.36116e-05, Final residual = 1.90058e-06, No Iterations 4
smoothSolver:  Solving for Uy, Initial residual = 7.35805e-06, Final residual = 2.59115e-07, No Iterations 4
smoothSolver:  Solving for Uz, Initial residual = 2.35193e-05, Final residual = 1.06615e-06, No Iterations 4
GAMG:  Solving for p, Initial residual = 0.000212802, Final residual = 1.95018e-05, No Iterations 1
time step continuity errors : sum local = 3.52939e-06, global = 7.16592e-07, cumulative = 4.65642e-05
smoothSolver:  Solving for nuTilda, Initial residual = 0.0138727, Final residual = 0.000678421, No Iterations 2
bounding nuTilda, min: -0.0092566 max: 0.107298 average: 0.0135403
ExecutionTime = 4848.73 s  ClockTime = 4851 s

forceCoeffs canard_1 write:
    Cm    = -0.165472
    Cd    = 0.212131
    Cl    = 1.63512
    Cl(f) = 0.652087
    Cl(r) = 0.983031

forceCoeffs canard_2 write:
    Cm    = 0.263199
    Cd    = 0.212131
    Cl    = 1.63512
    Cl(f) = 1.08076
    Cl(r) = 0.55436

forceCoeffs canard_3 write:
    Cm    = 0.691869
    Cd    = 0.212131
    Cl    = 1.63512
    Cl(f) = 1.50943
    Cl(r) = 0.12569

forceCoeffs canard_4 write:
    Cm    = 1.12054
    Cd    = 0.212131
    Cl    = 1.63512
    Cl(f) = 1.9381
    Cl(r) = -0.302981

forceCoeffs canard_5 write:
    Cm    = 1.54921
    Cd    = 0.212131
    Cl    = 1.63512
    Cl(f) = 2.36677
    Cl(r) = -0.731651

forceCoeffs canard_6 write:
    Cm    = 1.97788
    Cd    = 0.212131
    Cl    = 1.63512
    Cl(f) = 2.79544
    Cl(r) = -1.16032

forceCoeffs canard_7 write:
    Cm    = 2.40655
    Cd    = 0.212131
    Cl    = 1.63512
    Cl(f) = 3.22411
    Cl(r) = -1.58899

forceCoeffs canard_8 write:
    Cm    = 2.83522
    Cd    = 0.212131
    Cl    = 1.63512
    Cl(f) = 3.65278
    Cl(r) = -2.01766

forceCoeffs canard_9 write:
    Cm    = 3.26389
    Cd    = 0.212131
    Cl    = 1.63512
    Cl(f) = 4.08145
    Cl(r) = -2.44633

forceCoeffs canard_10 write:
    Cm    = 3.69256
    Cd    = 0.212131
    Cl    = 1.63512
    Cl(f) = 4.51012
    Cl(r) = -2.875

forceCoeffs canard_11 write:
    Cm    = 4.12123
    Cd    = 0.212131
    Cl    = 1.63512
    Cl(f) = 4.93879
    Cl(r) = -3.30367

Time = 496s

smoothSolver:  Solving for Ux, Initial residual = 6.2322e-05, Final residual = 1.90287e-06, No Iterations 4
smoothSolver:  Solving for Uy, Initial residual = 7.33039e-06, Final residual = 2.60047e-07, No Iterations 4
smoothSolver:  Solving for Uz, Initial residual = 2.3937e-05, Final residual = 1.07334e-06, No Iterations 4
GAMG:  Solving for p, Initial residual = 0.000212404, Final residual = 1.91908e-05, No Iterations 1
time step continuity errors : sum local = 3.47308e-06, global = 9.70894e-07, cumulative = 4.75351e-05
smoothSolver:  Solving for nuTilda, Initial residual = 0.0139716, Final residual = 0.000612572, No Iterations 2
bounding nuTilda, min: -0.00788828 max: 0.107298 average: 0.0135414
ExecutionTime = 4857.97 s  ClockTime = 4860 s

forceCoeffs canard_1 write:
    Cm    = -0.165486
    Cd    = 0.212138
    Cl    = 1.63508
    Cl(f) = 0.652052
    Cl(r) = 0.983025

forceCoeffs canard_2 write:
    Cm    = 0.263174
    Cd    = 0.212138
    Cl    = 1.63508
    Cl(f) = 1.08071
    Cl(r) = 0.554364

forceCoeffs canard_3 write:
    Cm    = 0.691835
    Cd    = 0.212138
    Cl    = 1.63508
    Cl(f) = 1.50937
    Cl(r) = 0.125704

forceCoeffs canard_4 write:
    Cm    = 1.1205
    Cd    = 0.212138
    Cl    = 1.63508
    Cl(f) = 1.93803
    Cl(r) = -0.302957

forceCoeffs canard_5 write:
    Cm    = 1.54916
    Cd    = 0.212138
    Cl    = 1.63508
    Cl(f) = 2.36669
    Cl(r) = -0.731617

forceCoeffs canard_6 write:
    Cm    = 1.97782
    Cd    = 0.212138
    Cl    = 1.63508
    Cl(f) = 2.79535
    Cl(r) = -1.16028

forceCoeffs canard_7 write:
    Cm    = 2.40648
    Cd    = 0.212138
    Cl    = 1.63508
    Cl(f) = 3.22402
    Cl(r) = -1.58894

forceCoeffs canard_8 write:
    Cm    = 2.83514
    Cd    = 0.212138
    Cl    = 1.63508
    Cl(f) = 3.65268
    Cl(r) = -2.0176

forceCoeffs canard_9 write:
    Cm    = 3.2638
    Cd    = 0.212138
    Cl    = 1.63508
    Cl(f) = 4.08134
    Cl(r) = -2.44626

forceCoeffs canard_10 write:
    Cm    = 3.69246
    Cd    = 0.212138
    Cl    = 1.63508
    Cl(f) = 4.51
    Cl(r) = -2.87492

forceCoeffs canard_11 write:
    Cm    = 4.12112
    Cd    = 0.212138
    Cl    = 1.63508
    Cl(f) = 4.93866
    Cl(r) = -3.30358

Time = 497s

smoothSolver:  Solving for Ux, Initial residual = 6.36994e-05, Final residual = 1.90267e-06, No Iterations 4
smoothSolver:  Solving for Uy, Initial residual = 7.46344e-06, Final residual = 2.60404e-07, No Iterations 4
smoothSolver:  Solving for Uz, Initial residual = 2.38415e-05, Final residual = 1.08126e-06, No Iterations 4
GAMG:  Solving for p, Initial residual = 0.000213862, Final residual = 1.93494e-05, No Iterations 1
time step continuity errors : sum local = 3.50181e-06, global = 8.26878e-07, cumulative = 4.8362e-05
smoothSolver:  Solving for nuTilda, Initial residual = 0.0137459, Final residual = 0.000627786, No Iterations 2
bounding nuTilda, min: -0.00925743 max: 0.107298 average: 0.0135408
ExecutionTime = 4867.28 s  ClockTime = 4870 s

forceCoeffs canard_1 write:
    Cm    = -0.165501
    Cd    = 0.212146
    Cl    = 1.63504
    Cl(f) = 0.652017
    Cl(r) = 0.98302

forceCoeffs canard_2 write:
    Cm    = 0.26315
    Cd    = 0.212146
    Cl    = 1.63504
    Cl(f) = 1.08067
    Cl(r) = 0.554369

forceCoeffs canard_3 write:
    Cm    = 0.691801
    Cd    = 0.212146
    Cl    = 1.63504
    Cl(f) = 1.50932
    Cl(r) = 0.125718

forceCoeffs canard_4 write:
    Cm    = 1.12045
    Cd    = 0.212146
    Cl    = 1.63504
    Cl(f) = 1.93797
    Cl(r) = -0.302933

forceCoeffs canard_5 write:
    Cm    = 1.5491
    Cd    = 0.212146
    Cl    = 1.63504
    Cl(f) = 2.36662
    Cl(r) = -0.731584

forceCoeffs canard_6 write:
    Cm    = 1.97775
    Cd    = 0.212146
    Cl    = 1.63504
    Cl(f) = 2.79527
    Cl(r) = -1.16023

forceCoeffs canard_7 write:
    Cm    = 2.4064
    Cd    = 0.212146
    Cl    = 1.63504
    Cl(f) = 3.22392
    Cl(r) = -1.58889

forceCoeffs canard_8 write:
    Cm    = 2.83506
    Cd    = 0.212146
    Cl    = 1.63504
    Cl(f) = 3.65257
    Cl(r) = -2.01754

forceCoeffs canard_9 write:
    Cm    = 3.26371
    Cd    = 0.212146
    Cl    = 1.63504
    Cl(f) = 4.08122
    Cl(r) = -2.44619

forceCoeffs canard_10 write:
    Cm    = 3.69236
    Cd    = 0.212146
    Cl    = 1.63504
    Cl(f) = 4.50988
    Cl(r) = -2.87484

forceCoeffs canard_11 write:
    Cm    = 4.12101
    Cd    = 0.212146
    Cl    = 1.63504
    Cl(f) = 4.93853
    Cl(r) = -3.30349

Time = 498s

smoothSolver:  Solving for Ux, Initial residual = 6.22229e-05, Final residual = 1.90422e-06, No Iterations 4
smoothSolver:  Solving for Uy, Initial residual = 7.33354e-06, Final residual = 2.61209e-07, No Iterations 4
smoothSolver:  Solving for Uz, Initial residual = 2.42492e-05, Final residual = 1.08879e-06, No Iterations 4
GAMG:  Solving for p, Initial residual = 0.000213192, Final residual = 1.84069e-05, No Iterations 1
time step continuity errors : sum local = 3.33124e-06, global = 8.36751e-07, cumulative = 4.91987e-05
smoothSolver:  Solving for nuTilda, Initial residual = 0.0139926, Final residual = 0.000719267, No Iterations 2
bounding nuTilda, min: -0.00514795 max: 0.107297 average: 0.0135419
ExecutionTime = 4876.35 s  ClockTime = 4879 s

forceCoeffs canard_1 write:
    Cm    = -0.165517
    Cd    = 0.212154
    Cl    = 1.635
    Cl(f) = 0.651982
    Cl(r) = 0.983017

forceCoeffs canard_2 write:
    Cm    = 0.263125
    Cd    = 0.212154
    Cl    = 1.635
    Cl(f) = 1.08062
    Cl(r) = 0.554375

forceCoeffs canard_3 write:
    Cm    = 0.691766
    Cd    = 0.212154
    Cl    = 1.635
    Cl(f) = 1.50927
    Cl(r) = 0.125733

forceCoeffs canard_4 write:
    Cm    = 1.12041
    Cd    = 0.212154
    Cl    = 1.635
    Cl(f) = 1.93791
    Cl(r) = -0.302909

forceCoeffs canard_5 write:
    Cm    = 1.54905
    Cd    = 0.212154
    Cl    = 1.635
    Cl(f) = 2.36655
    Cl(r) = -0.731551

forceCoeffs canard_6 write:
    Cm    = 1.97769
    Cd    = 0.212154
    Cl    = 1.635
    Cl(f) = 2.79519
    Cl(r) = -1.16019

forceCoeffs canard_7 write:
    Cm    = 2.40633
    Cd    = 0.212154
    Cl    = 1.635
    Cl(f) = 3.22383
    Cl(r) = -1.58883

forceCoeffs canard_8 write:
    Cm    = 2.83498
    Cd    = 0.212154
    Cl    = 1.635
    Cl(f) = 3.65247
    Cl(r) = -2.01748

forceCoeffs canard_9 write:
    Cm    = 3.26362
    Cd    = 0.212154
    Cl    = 1.635
    Cl(f) = 4.08112
    Cl(r) = -2.44612

forceCoeffs canard_10 write:
    Cm    = 3.69226
    Cd    = 0.212154
    Cl    = 1.635
    Cl(f) = 4.50976
    Cl(r) = -2.87476

forceCoeffs canard_11 write:
    Cm    = 4.1209
    Cd    = 0.212154
    Cl    = 1.635
    Cl(f) = 4.9384
    Cl(r) = -3.3034

Time = 499s

smoothSolver:  Solving for Ux, Initial residual = 6.39505e-05, Final residual = 1.90263e-06, No Iterations 4
smoothSolver:  Solving for Uy, Initial residual = 7.42538e-06, Final residual = 2.61167e-07, No Iterations 4
smoothSolver:  Solving for Uz, Initial residual = 2.41424e-05, Final residual = 1.09474e-06, No Iterations 4
GAMG:  Solving for p, Initial residual = 0.000213212, Final residual = 1.85473e-05, No Iterations 1
time step continuity errors : sum local = 3.35667e-06, global = 5.75497e-07, cumulative = 4.97742e-05
smoothSolver:  Solving for nuTilda, Initial residual = 0.0138625, Final residual = 0.000568555, No Iterations 2
bounding nuTilda, min: -0.00925825 max: 0.107297 average: 0.0135411
ExecutionTime = 4885.76 s  ClockTime = 4888 s

forceCoeffs canard_1 write:
    Cm    = -0.165534
    Cd    = 0.212162
    Cl    = 1.63496
    Cl(f) = 0.651947
    Cl(r) = 0.983015

forceCoeffs canard_2 write:
    Cm    = 0.263099
    Cd    = 0.212162
    Cl    = 1.63496
    Cl(f) = 1.08058
    Cl(r) = 0.554382

forceCoeffs canard_3 write:
    Cm    = 0.691732
    Cd    = 0.212162
    Cl    = 1.63496
    Cl(f) = 1.50921
    Cl(r) = 0.125749

forceCoeffs canard_4 write:
    Cm    = 1.12037
    Cd    = 0.212162
    Cl    = 1.63496
    Cl(f) = 1.93785
    Cl(r) = -0.302884

forceCoeffs canard_5 write:
    Cm    = 1.549
    Cd    = 0.212162
    Cl    = 1.63496
    Cl(f) = 2.36648
    Cl(r) = -0.731517

forceCoeffs canard_6 write:
    Cm    = 1.97763
    Cd    = 0.212162
    Cl    = 1.63496
    Cl(f) = 2.79511
    Cl(r) = -1.16015

forceCoeffs canard_7 write:
    Cm    = 2.40626
    Cd    = 0.212162
    Cl    = 1.63496
    Cl(f) = 3.22375
    Cl(r) = -1.58878

forceCoeffs canard_8 write:
    Cm    = 2.8349
    Cd    = 0.212162
    Cl    = 1.63496
    Cl(f) = 3.65238
    Cl(r) = -2.01742

forceCoeffs canard_9 write:
    Cm    = 3.26353
    Cd    = 0.212162
    Cl    = 1.63496
    Cl(f) = 4.08101
    Cl(r) = -2.44605

forceCoeffs canard_10 write:
    Cm    = 3.69216
    Cd    = 0.212162
    Cl    = 1.63496
    Cl(f) = 4.50964
    Cl(r) = -2.87468

forceCoeffs canard_11 write:
    Cm    = 4.1208
    Cd    = 0.212162
    Cl    = 1.63496
    Cl(f) = 4.93828
    Cl(r) = -3.30332

Time = 500s

smoothSolver:  Solving for Ux, Initial residual = 6.16961e-05, Final residual = 1.90241e-06, No Iterations 4
smoothSolver:  Solving for Uy, Initial residual = 7.35388e-06, Final residual = 2.61566e-07, No Iterations 4
smoothSolver:  Solving for Uz, Initial residual = 2.45001e-05, Final residual = 1.09865e-06, No Iterations 4
GAMG:  Solving for p, Initial residual = 0.000212345, Final residual = 1.75205e-05, No Iterations 1
time step continuity errors : sum local = 3.17087e-06, global = 5.09497e-07, cumulative = 5.02837e-05
smoothSolver:  Solving for nuTilda, Initial residual = 0.0138581, Final residual = 0.000669647, No Iterations 2
bounding nuTilda, min: -0.00603036 max: 0.107297 average: 0.0135425
ExecutionTime = 4901.16 s  ClockTime = 4904 s

forceCoeffs canard_1 write:
    Cm    = -0.165551
    Cd    = 0.212172
    Cl    = 1.63493
    Cl(f) = 0.651911
    Cl(r) = 0.983014

forceCoeffs canard_2 write:
    Cm    = 0.263073
    Cd    = 0.212172
    Cl    = 1.63493
    Cl(f) = 1.08054
    Cl(r) = 0.55439

forceCoeffs canard_3 write:
    Cm    = 0.691698
    Cd    = 0.212172
    Cl    = 1.63493
    Cl(f) = 1.50916
    Cl(r) = 0.125765

forceCoeffs canard_4 write:
    Cm    = 1.12032
    Cd    = 0.212172
    Cl    = 1.63493
    Cl(f) = 1.93778
    Cl(r) = -0.302859

forceCoeffs canard_5 write:
    Cm    = 1.54895
    Cd    = 0.212172
    Cl    = 1.63493
    Cl(f) = 2.36641
    Cl(r) = -0.731484

forceCoeffs canard_6 write:
    Cm    = 1.97757
    Cd    = 0.212172
    Cl    = 1.63493
    Cl(f) = 2.79503
    Cl(r) = -1.16011

forceCoeffs canard_7 write:
    Cm    = 2.4062
    Cd    = 0.212172
    Cl    = 1.63493
    Cl(f) = 3.22366
    Cl(r) = -1.58873

forceCoeffs canard_8 write:
    Cm    = 2.83482
    Cd    = 0.212172
    Cl    = 1.63493
    Cl(f) = 3.65228
    Cl(r) = -2.01736

forceCoeffs canard_9 write:
    Cm    = 3.26344
    Cd    = 0.212172
    Cl    = 1.63493
    Cl(f) = 4.08091
    Cl(r) = -2.44598

forceCoeffs canard_10 write:
    Cm    = 3.69207
    Cd    = 0.212172
    Cl    = 1.63493
    Cl(f) = 4.50953
    Cl(r) = -2.87461

forceCoeffs canard_11 write:
    Cm    = 4.12069
    Cd    = 0.212172
    Cl    = 1.63493
    Cl(f) = 4.93816
    Cl(r) = -3.30323

End

Finalising parallel run
